MODEL 1
REMARK VINA RESULT:     -10.7      0.000      0.000
REMARK  6 active torsions:
REMARK  status: ('A' for Active; 'I' for Inactive)
REMARK    1  A    between atoms: C_2  and  O_3 
REMARK    2  A    between atoms: C_2  and  C_32 
REMARK    3  A    between atoms: O_3  and  C_4 
REMARK    4  A    between atoms: C_6  and  N_7 
REMARK    5  A    between atoms: C_20  and  C_21 
REMARK       I    between atoms: C_21  and  N_23 
REMARK    6  A    between atoms: N_23  and  C_24 
ROOT
ATOM      1  C   UNL d   1     -24.714  23.392  22.726  0.00  0.00     0.087 A 
ATOM      2  C   UNL d   1     -25.971  22.833  22.881  0.00  0.00     0.073 A 
ATOM      3  C   UNL d   1     -26.852  23.350  23.820  0.00  0.00     0.104 A 
ATOM      4  C   UNL d   1     -26.471  24.427  24.622  0.00  0.00     0.146 A 
ATOM      5  F   UNL d   1     -27.331  24.922  25.538  0.00  0.00    -0.204 F 
ATOM      6  C   UNL d   1     -25.222  24.988  24.480  0.00  0.00     0.064 A 
ATOM      7  C   UNL d   1     -24.330  24.476  23.531  0.00  0.00     0.068 A 
ENDROOT
BRANCH   7   8
ATOM      8  C   UNL d   1     -22.993  25.072  23.377  0.00  0.00     0.259 C 
ATOM      9  O   UNL d   1     -22.833  26.026  22.639  0.00  0.00    -0.267 OA
ATOM     10  N   UNL d   1     -21.945  24.561  24.053  0.00  0.00    -0.321 N 
ATOM     11  H   UNL d   1     -22.081  23.840  24.687  0.00  0.00     0.169 HD
BRANCH  10  12
ATOM     12  C   UNL d   1     -20.659  25.072  23.841  0.00  0.00     0.059 A 
ATOM     13  C   UNL d   1     -20.167  26.078  24.663  0.00  0.00     0.060 A 
ATOM     14  C   UNL d   1     -18.896  26.582  24.454  0.00  0.00     0.029 A 
ATOM     15 CL   UNL d   1     -21.145  26.704  25.954  0.00  0.00    -0.082 Cl
ATOM     16  C   UNL d   1     -18.116  26.085  23.426  0.00  0.00     0.044 A 
ATOM     17  C   UNL d   1     -18.604  25.081  22.605  0.00  0.00     0.118 A 
ATOM     18  C   UNL d   1     -19.872  24.570  22.814  0.00  0.00     0.073 A 
ATOM     19  F   UNL d   1     -17.837  24.599  21.602  0.00  0.00    -0.206 F 
ENDBRANCH  10  12
ENDBRANCH   7   8
BRANCH   1  20
ATOM     20  O   UNL d   1     -23.854  22.892  21.804  0.00  0.00    -0.336 OA
BRANCH  20  21
ATOM     21  C   UNL d   1     -23.961  23.402  20.473  0.00  0.00     0.232 C 
ATOM     22  C   UNL d   1     -22.577  23.825  19.977  0.00  0.00     0.049 C 
BRANCH  21  23
ATOM     23  C   UNL d   1     -24.524  22.316  19.554  0.00  0.00     0.413 C 
ATOM     24  F   UNL d   1     -23.728  21.171  19.645  0.00  0.00    -0.168 F 
ATOM     25  F   UNL d   1     -25.832  22.008  19.944  0.00  0.00    -0.168 F 
ATOM     26  F   UNL d   1     -24.528  22.779  18.234  0.00  0.00    -0.168 F 
ENDBRANCH  21  23
ENDBRANCH  20  21
ENDBRANCH   1  20
BRANCH   3  27
ATOM     27  N   UNL d   1     -28.120  22.786  23.970  0.00  0.00    -0.178 N 
ATOM     28  C   UNL d   1     -28.531  21.998  24.988  0.00  0.00     0.351 A 
ATOM     29  N   UNL d   1     -29.821  21.695  24.765  0.00  0.00    -0.284 N 
ATOM     30  O   UNL d   1     -27.857  21.631  25.933  0.00  0.00    -0.244 OA
ATOM     31  C   UNL d   1     -30.201  22.271  23.570  0.00  0.00     0.131 A 
ATOM     32  C   UNL d   1     -30.715  20.911  25.624  0.00  0.00     0.135 C 
ATOM     33  N   UNL d   1     -29.203  22.929  23.089  0.00  0.00    -0.149 NA
ATOM     34  C   UNL d   1     -31.578  22.117  22.966  0.00  0.00     0.081 C 
ATOM     35  C   UNL d   1     -32.532  21.648  24.072  0.00  0.00     0.009 C 
ATOM     36  C   UNL d   1     -31.912  20.444  24.788  0.00  0.00     0.021 C 
ENDBRANCH   3  27
TORSDOF 6
ENDMDL
