MODEL 1
REMARK VINA RESULT:     -10.9      0.000      0.000
REMARK  4 active torsions:
REMARK  status: ('A' for Active; 'I' for Inactive)
REMARK       I    between atoms: C_2  and  N_3 
REMARK    1  A    between atoms: C_2  and  C_20 
REMARK    2  A    between atoms: N_3  and  C_4 
REMARK    3  A    between atoms: N_12  and  C_13 
REMARK    4  A    between atoms: C_22  and  C_23 
ROOT
ATOM      1  C   UNL d   1     -26.814  22.402  22.106  0.00  0.00     0.121 C 
ATOM      2  C   UNL d   1     -25.980  21.268  21.497  0.00  0.00     0.030 C 
ATOM      3  C   UNL d   1     -24.802  21.860  20.719  0.00  0.00     0.008 C 
ATOM      4  C   UNL d   1     -23.791  22.466  21.701  0.00  0.00     0.060 C 
ATOM      5  C   UNL d   1     -24.536  23.366  22.654  0.00  0.00     0.046 A 
ATOM      6  C   UNL d   1     -25.882  23.339  22.834  0.00  0.00     0.008 A 
ATOM      7  C   UNL d   1     -26.208  24.307  23.781  0.00  0.00     0.150 A 
ATOM      8  N   UNL d   1     -25.101  24.896  24.162  0.00  0.00    -0.179 NA
ATOM      9  N   UNL d   1     -24.031  24.317  23.463  0.00  0.00    -0.235 N 
ENDROOT
BRANCH   1  10
ATOM     10  N   UNL d   1     -27.789  21.846  23.048  0.00  0.00    -0.347 N 
ATOM     11  C   UNL d   1     -29.055  22.308  23.056  0.00  0.00     0.270 C 
ATOM     12  O   UNL d   1     -29.387  23.184  22.283  0.00  0.00    -0.266 OA
ATOM     13  H   UNL d   1     -27.524  21.147  23.665  0.00  0.00     0.163 HD
BRANCH  11  14
ATOM     14  C   UNL d   1     -30.043  21.746  24.008  0.00  0.00     0.124 A 
ATOM     15  N   UNL d   1     -29.676  21.481  25.255  0.00  0.00    -0.255 NA
ATOM     16  C   UNL d   1     -30.522  20.986  26.133  0.00  0.00     0.118 A 
ATOM     17  C   UNL d   1     -31.834  20.713  25.780  0.00  0.00     0.035 A 
ATOM     18  C   UNL d   1     -32.258  20.971  24.486  0.00  0.00     0.051 A 
ATOM     19  C   UNL d   1     -31.346  21.496  23.584  0.00  0.00     0.053 A 
BRANCH  18  20
ATOM     20  C   UNL d   1     -33.677  20.687  24.069  0.00  0.00     0.417 C 
ATOM     21  F   UNL d   1     -34.280  21.871  23.632  0.00  0.00    -0.166 F 
ATOM     22  F   UNL d   1     -33.679  19.752  23.028  0.00  0.00    -0.166 F 
ATOM     23  F   UNL d   1     -34.390  20.174  25.158  0.00  0.00    -0.166 F 
ENDBRANCH  18  20
ENDBRANCH  11  14
ENDBRANCH   1  10
BRANCH   9  24
ATOM     24  C   UNL d   1     -22.679  24.664  23.585  0.00  0.00     0.097 A 
ATOM     25  C   UNL d   1     -22.274  25.977  23.366  0.00  0.00     0.145 A 
ATOM     26  C   UNL d   1     -20.938  26.316  23.493  0.00  0.00     0.045 A 
ATOM     27  F   UNL d   1     -23.183  26.918  23.034  0.00  0.00    -0.204 F 
ATOM     28  C   UNL d   1     -20.007  25.350  23.827  0.00  0.00     0.003 A 
ATOM     29  C   UNL d   1     -20.407  24.044  24.040  0.00  0.00     0.002 A 
ATOM     30  C   UNL d   1     -21.739  23.699  23.920  0.00  0.00     0.035 A 
ENDBRANCH   9  24
TORSDOF 4
ENDMDL
