MODEL 1
REMARK VINA RESULT:      -7.7      0.000      0.000
REMARK  7 active torsions:
REMARK  status: ('A' for Active; 'I' for Inactive)
REMARK    1  A    between atoms: C_2  and  N_3 
REMARK    2  A    between atoms: C_4  and  C_5 
REMARK    3  A    between atoms: C_5  and  O_6 
REMARK    4  A    between atoms: N_8  and  C_9 
REMARK    5  A    between atoms: C_12  and  C_13 
REMARK    6  A    between atoms: N_17  and  C_18 
REMARK    7  A    between atoms: C_24  and  O_25 
ROOT
ATOM      1  C   UNL d   1     -20.766  24.562  22.496  0.00  0.00     0.103 A 
ATOM      2  C   UNL d   1     -20.781  25.269  23.686  0.00  0.00     0.048 A 
ATOM      3  C   UNL d   1     -19.598  25.825  24.167  0.00  0.00    -0.010 A 
ATOM      4  C   UNL d   1     -19.551  26.583  25.419  0.00  0.00    -0.027 A 
ATOM      5  C   UNL d   1     -18.383  27.097  25.835  0.00  0.00     0.109 A 
ATOM      6  N   UNL d   1     -17.221  26.940  25.130  0.00  0.00    -0.284 N 
ATOM      7  C   UNL d   1     -17.172  26.259  23.969  0.00  0.00     0.263 A 
ATOM      8  O   UNL d   1     -16.117  26.141  23.370  0.00  0.00    -0.267 OA
ATOM      9  C   UNL d   1     -18.398  25.661  23.435  0.00  0.00     0.046 A 
ATOM     10  C   UNL d   1     -18.407  24.944  22.237  0.00  0.00     0.062 A 
ATOM     11  C   UNL d   1     -19.576  24.405  21.779  0.00  0.00     0.146 A 
ATOM     12  F   UNL d   1     -19.583  23.711  20.619  0.00  0.00    -0.204 F 
ENDROOT
BRANCH   1  13
ATOM     13  N   UNL d   1     -21.951  24.007  22.004  0.00  0.00    -0.178 N 
ATOM     14  N   UNL d   1     -22.786  23.102  22.674  0.00  0.00    -0.147 NA
ATOM     15  C   UNL d   1     -23.781  22.821  21.897  0.00  0.00     0.154 A 
ATOM     16  N   UNL d   1     -23.635  23.515  20.721  0.00  0.00    -0.283 N 
ATOM     17  C   UNL d   1     -22.506  24.249  20.798  0.00  0.00     0.351 A 
ATOM     18  O   UNL d   1     -22.067  24.991  19.939  0.00  0.00    -0.244 OA
BRANCH  15  19
ATOM     19  C   UNL d   1     -24.915  21.885  22.226  0.00  0.00     0.244 C 
BRANCH  19  20
ATOM     20  O   UNL d   1     -24.722  20.645  21.540  0.00  0.00    -0.393 OA
ATOM     21  H   UNL d   1     -24.789  19.867  22.111  0.00  0.00     0.209 HD
ENDBRANCH  19  20
ENDBRANCH  15  19
BRANCH  16  22
ATOM     22  C   UNL d   1     -24.552  23.472  19.579  0.00  0.00     0.131 C 
ATOM     23  C   UNL d   1     -24.193  22.286  18.681  0.00  0.00     0.027 C 
ENDBRANCH  16  22
ENDBRANCH   1  13
BRANCH   4  24
ATOM     24  C   UNL d   1     -20.803  26.784  26.234  0.00  0.00     0.013 C 
ATOM     25  C   UNL d   1     -20.477  26.618  27.719  0.00  0.00     0.015 C 
ATOM     26  C   UNL d   1     -21.352  28.190  25.986  0.00  0.00     0.015 C 
ENDBRANCH   4  24
BRANCH   6  27
ATOM     27  C   UNL d   1     -16.042  27.508  25.633  0.00  0.00     0.101 A 
ATOM     28  C   UNL d   1     -15.629  28.771  25.210  0.00  0.00     0.192 A 
ATOM     29  N   UNL d   1     -14.518  29.307  25.683  0.00  0.00    -0.235 NA
ATOM     30  C   UNL d   1     -13.763  28.677  26.564  0.00  0.00     0.120 A 
ATOM     31  C   UNL d   1     -14.109  27.423  27.027  0.00  0.00     0.028 A 
ATOM     32  C   UNL d   1     -15.270  26.823  26.563  0.00  0.00    -0.029 A 
ATOM     33  C   UNL d   1     -15.681  25.457  27.052  0.00  0.00     0.050 C 
BRANCH  28  34
ATOM     34  O   UNL d   1     -16.375  29.455  24.306  0.00  0.00    -0.338 OA
ATOM     35  C   UNL d   1     -15.793  29.676  23.019  0.00  0.00     0.211 C 
ENDBRANCH  28  34
ENDBRANCH   6  27
TORSDOF 7
ENDMDL
