MODEL 1
REMARK VINA RESULT:      -9.8      0.000      0.000
REMARK  7 active torsions:
REMARK  status: ('A' for Active; 'I' for Inactive)
REMARK    1  A    between atoms: C_2  and  N_3 
REMARK    2  A    between atoms: C_4  and  C_5 
REMARK    3  A    between atoms: C_5  and  O_6 
REMARK    4  A    between atoms: N_8  and  C_9 
REMARK    5  A    between atoms: C_12  and  C_13 
REMARK    6  A    between atoms: N_17  and  C_18 
REMARK    7  A    between atoms: C_21  and  O_22 
ROOT
ATOM      1  C   UNL d   1     -29.085  22.099  21.959  0.00  0.00     0.103 A 
ATOM      2  C   UNL d   1     -28.352  22.840  22.871  0.00  0.00     0.048 A 
ATOM      3  C   UNL d   1     -26.968  22.919  22.733  0.00  0.00    -0.010 A 
ATOM      4  C   UNL d   1     -26.139  23.686  23.664  0.00  0.00    -0.028 A 
ATOM      5  C   UNL d   1     -24.809  23.723  23.487  0.00  0.00     0.103 A 
ATOM      6  N   UNL d   1     -24.190  23.074  22.455  0.00  0.00    -0.319 N 
ATOM      7  C   UNL d   1     -24.873  22.345  21.551  0.00  0.00     0.259 A 
ATOM      8  O   UNL d   1     -24.285  21.778  20.647  0.00  0.00    -0.267 OA
ATOM      9  C   UNL d   1     -26.330  22.241  21.666  0.00  0.00     0.046 A 
ATOM     10  C   UNL d   1     -27.091  21.501  20.760  0.00  0.00     0.062 A 
ATOM     11  C   UNL d   1     -28.448  21.434  20.909  0.00  0.00     0.146 A 
ATOM     12  F   UNL d   1     -29.181  20.716  20.031  0.00  0.00    -0.204 F 
ENDROOT
BRANCH   1  13
ATOM     13  N   UNL d   1     -30.474  22.015  22.091  0.00  0.00    -0.178 N 
ATOM     14  N   UNL d   1     -31.414  22.103  21.055  0.00  0.00    -0.147 NA
ATOM     15  C   UNL d   1     -32.595  21.976  21.570  0.00  0.00     0.154 A 
ATOM     16  N   UNL d   1     -32.470  21.813  22.928  0.00  0.00    -0.283 N 
ATOM     17  C   UNL d   1     -31.159  21.838  23.240  0.00  0.00     0.351 A 
ATOM     18  O   UNL d   1     -30.680  21.723  24.354  0.00  0.00    -0.244 OA
BRANCH  15  19
ATOM     19  C   UNL d   1     -33.893  22.008  20.806  0.00  0.00     0.244 C 
BRANCH  19  20
ATOM     20  O   UNL d   1     -34.714  23.064  21.305  0.00  0.00    -0.393 OA
ATOM     21  H   UNL d   1     -34.802  23.813  20.701  0.00  0.00     0.209 HD
ENDBRANCH  19  20
ENDBRANCH  15  19
BRANCH  16  22
ATOM     22  C   UNL d   1     -33.574  21.640  23.877  0.00  0.00     0.131 C 
ATOM     23  C   UNL d   1     -33.679  20.166  24.272  0.00  0.00     0.027 C 
ENDBRANCH  16  22
ENDBRANCH   1  13
BRANCH   4  24
ATOM     24  C   UNL d   1     -26.773  24.423  24.816  0.00  0.00     0.013 C 
ATOM     25  C   UNL d   1     -26.822  23.507  26.041  0.00  0.00     0.015 C 
ATOM     26  C   UNL d   1     -25.948  25.668  25.142  0.00  0.00     0.015 C 
ENDBRANCH   4  24
BRANCH   6  27
ATOM     27  C   UNL d   1     -22.733  23.171  22.332  0.00  0.00     0.095 C 
ATOM     28  C   UNL d   1     -22.090  23.451  23.713  0.00  0.00     0.057 C 
ATOM     29  C   UNL d   1     -20.740  24.107  23.334  0.00  0.00     0.122 C 
ATOM     30  C   UNL d   1     -21.077  24.992  22.116  0.00  0.00     0.034 C 
ATOM     31  C   UNL d   1     -22.345  24.397  21.479  0.00  0.00     0.028 C 
BRANCH  29  32
ATOM     32  O   UNL d   1     -20.251  24.905  24.415  0.00  0.00    -0.391 OA
ATOM     33  C   UNL d   1     -20.848  26.201  24.497  0.00  0.00     0.202 C 
ENDBRANCH  29  32
ENDBRANCH   6  27
TORSDOF 7
ENDMDL
