MODEL 1
REMARK VINA RESULT:      -8.3      0.000      0.000
REMARK  6 active torsions:
REMARK  status: ('A' for Active; 'I' for Inactive)
REMARK    1  A    between atoms: C_2  and  O_3 
REMARK    2  A    between atoms: O_3  and  C_4 
REMARK    3  A    between atoms: C_4  and  C_6 
REMARK    4  A    between atoms: C_8  and  N_9 
REMARK    5  A    between atoms: N_9  and  C_10 
REMARK    6  A    between atoms: C_19  and  C_20 
ROOT
ATOM      1  C   UNL d   1     -24.730  24.683  23.524  0.00  0.00     0.109 A 
ATOM      2  S   UNL d   1     -26.179  24.901  24.503  0.00  0.00    -0.044 SA
ATOM      3  C   UNL d   1     -26.724  23.340  24.067  0.00  0.00     0.172 A 
ATOM      4  N   UNL d   1     -25.866  22.762  23.274  0.00  0.00    -0.227 NA
ATOM      5  C   UNL d   1     -24.795  23.440  22.953  0.00  0.00     0.068 A 
ENDROOT
BRANCH   3   6
ATOM      6  N   UNL d   1     -27.903  22.771  24.498  0.00  0.00    -0.335 N 
ATOM      7  H   UNL d   1     -28.000  22.501  25.425  0.00  0.00     0.168 HD
BRANCH   6   8
ATOM      8  C   UNL d   1     -28.958  22.582  23.601  0.00  0.00     0.034 A 
ATOM      9  C   UNL d   1     -30.219  22.243  24.072  0.00  0.00     0.036 A 
ATOM     10  C   UNL d   1     -31.260  22.057  23.182  0.00  0.00    -0.054 A 
ATOM     11  C   UNL d   1     -31.044  22.203  21.824  0.00  0.00    -0.056 A 
ATOM     12  C   UNL d   1     -32.630  21.689  23.692  0.00  0.00     0.049 C 
ATOM     13  C   UNL d   1     -29.790  22.546  21.353  0.00  0.00     0.009 A 
ATOM     14  C   UNL d   1     -32.181  21.995  20.856  0.00  0.00     0.049 C 
ATOM     15  C   UNL d   1     -28.746  22.732  22.236  0.00  0.00     0.030 A 
ENDBRANCH   6   8
ENDBRANCH   3   6
BRANCH   1  16
ATOM     16  C   UNL d   1     -23.686  25.626  23.356  0.00  0.00     0.302 C 
ATOM     17  O   UNL d   1     -23.834  26.570  22.603  0.00  0.00    -0.259 OA
BRANCH  16  18
ATOM     18  O   UNL d   1     -22.527  25.476  24.029  0.00  0.00    -0.317 OA
BRANCH  18  19
ATOM     19  C   UNL d   1     -21.622  26.583  24.020  0.00  0.00     0.174 C 
ATOM     20  C   UNL d   1     -21.830  27.422  25.282  0.00  0.00     0.034 C 
ENDBRANCH  18  19
ENDBRANCH  16  18
ENDBRANCH   1  16
BRANCH   5  21
ATOM     21  C   UNL d   1     -23.723  22.899  22.042  0.00  0.00    -0.005 C 
ATOM     22  C   UNL d   1     -23.459  23.899  20.915  0.00  0.00     0.021 C 
ATOM     23  C   UNL d   1     -22.438  22.680  22.841  0.00  0.00     0.021 C 
ATOM     24  C   UNL d   1     -24.186  21.568  21.445  0.00  0.00     0.021 C 
ENDBRANCH   5  21
TORSDOF 6
ENDMDL
