MODEL 1
REMARK VINA RESULT:      -9.1      0.000      0.000
REMARK  7 active torsions:
REMARK  status: ('A' for Active; 'I' for Inactive)
REMARK    1  A    between atoms: C_2  and  N_3 
REMARK    2  A    between atoms: C_4  and  C_5 
REMARK    3  A    between atoms: C_5  and  O_6 
REMARK    4  A    between atoms: N_8  and  C_9 
REMARK    5  A    between atoms: N_15  and  C_16 
REMARK    6  A    between atoms: C_24  and  C_25 
REMARK    7  A    between atoms: C_25  and  O_28 
ROOT
ATOM      1  C   UNL d   1     -26.349  23.313  24.236  0.00  0.00     0.064 A 
ATOM      2  C   UNL d   1     -26.515  22.967  25.577  0.00  0.00     0.033 A 
ATOM      3  C   UNL d   1     -27.658  22.357  26.005  0.00  0.00     0.020 A 
ATOM      4  C   UNL d   1     -28.677  22.074  25.093  0.00  0.00     0.043 A 
ATOM      5  C   UNL d   1     -29.923  21.421  25.501  0.00  0.00     0.263 A 
ATOM      6  O   UNL d   1     -30.101  21.106  26.664  0.00  0.00    -0.267 OA
ATOM      7  N   UNL d   1     -30.871  21.173  24.576  0.00  0.00    -0.288 N 
ATOM      8  C   UNL d   1     -30.713  21.510  23.260  0.00  0.00     0.111 A 
ATOM      9  C   UNL d   1     -29.604  22.110  22.800  0.00  0.00     0.003 A 
ATOM     10  C   UNL d   1     -28.514  22.415  23.729  0.00  0.00    -0.008 A 
ATOM     11  C   UNL d   1     -27.343  23.044  23.309  0.00  0.00     0.045 A 
ENDROOT
BRANCH   1  12
ATOM     12  N   UNL d   1     -25.169  23.937  23.822  0.00  0.00    -0.181 N 
ATOM     13  N   UNL d   1     -24.013  23.301  23.349  0.00  0.00    -0.147 NA
ATOM     14  C   UNL d   1     -23.139  24.212  23.066  0.00  0.00     0.154 A 
ATOM     15  N   UNL d   1     -23.679  25.445  23.338  0.00  0.00    -0.283 N 
ATOM     16  C   UNL d   1     -24.933  25.266  23.798  0.00  0.00     0.351 A 
ATOM     17  O   UNL d   1     -25.710  26.142  24.134  0.00  0.00    -0.244 OA
BRANCH  14  18
ATOM     18  C   UNL d   1     -21.754  23.961  22.528  0.00  0.00     0.244 C 
BRANCH  18  19
ATOM     19  O   UNL d   1     -21.748  24.169  21.114  0.00  0.00    -0.393 OA
ATOM     20  H   UNL d   1     -20.882  24.407  20.755  0.00  0.00     0.209 HD
ENDBRANCH  18  19
ENDBRANCH  14  18
BRANCH  15  21
ATOM     21  C   UNL d   1     -23.009  26.735  23.154  0.00  0.00     0.131 C 
ATOM     22  C   UNL d   1     -22.302  27.131  24.452  0.00  0.00     0.027 C 
ENDBRANCH  15  21
ENDBRANCH   1  12
BRANCH   9  23
ATOM     23  C   UNL d   1     -29.480  22.460  21.339  0.00  0.00     0.080 C 
ATOM     24  C   UNL d   1     -28.386  21.601  20.702  0.00  0.00     0.051 C 
ATOM     25  C   UNL d   1     -30.812  22.195  20.637  0.00  0.00     0.051 C 
BRANCH  23  26
ATOM     26  O   UNL d   1     -29.138  23.841  21.208  0.00  0.00    -0.386 OA
ATOM     27  H   UNL d   1     -29.167  24.334  22.039  0.00  0.00     0.211 HD
ENDBRANCH  23  26
ENDBRANCH   9  23
BRANCH   7  28
ATOM     28  C   UNL d   1     -32.059  20.550  24.977  0.00  0.00     0.045 A 
ATOM     29  C   UNL d   1     -32.013  19.372  25.711  0.00  0.00     0.072 A 
ATOM     30  C   UNL d   1     -33.188  18.761  26.110  0.00  0.00     0.118 A 
ATOM     31  C   UNL d   1     -34.408  19.317  25.767  0.00  0.00     0.042 A 
ATOM     32  F   UNL d   1     -33.144  17.618  26.829  0.00  0.00    -0.206 F 
ATOM     33  C   UNL d   1     -34.456  20.487  25.031  0.00  0.00     0.005 A 
ATOM     34  C   UNL d   1     -33.286  21.104  24.636  0.00  0.00     0.030 A 
ENDBRANCH   7  28
TORSDOF 7
ENDMDL
