MODEL 1
REMARK VINA RESULT:      -9.9      0.000      0.000
REMARK  8 active torsions:
REMARK  status: ('A' for Active; 'I' for Inactive)
REMARK    1  A    between atoms: C_2  and  C_3 
REMARK    2  A    between atoms: C_3  and  C_4 
REMARK    3  A    between atoms: C_4  and  O_6 
REMARK    4  A    between atoms: O_6  and  C_7 
REMARK    5  A    between atoms: C_9  and  N_10 
REMARK    6  A    between atoms: C_12  and  C_13 
REMARK    7  A    between atoms: C_22  and  C_23 
REMARK       I    between atoms: C_23  and  N_25 
REMARK    8  A    between atoms: N_25  and  C_26 
ROOT
ATOM      1  C   UNL d   1     -27.504  22.702  22.955  0.00  0.00     0.087 A 
ATOM      2  C   UNL d   1     -28.707  22.051  23.165  0.00  0.00     0.073 A 
ATOM      3  C   UNL d   1     -29.204  21.908  24.453  0.00  0.00     0.104 A 
ATOM      4  C   UNL d   1     -28.496  22.420  25.540  0.00  0.00     0.146 A 
ATOM      5  F   UNL d   1     -28.986  22.277  26.791  0.00  0.00    -0.204 F 
ATOM      6  C   UNL d   1     -27.294  23.063  25.342  0.00  0.00     0.064 A 
ATOM      7  C   UNL d   1     -26.790  23.216  24.046  0.00  0.00     0.068 A 
ENDROOT
BRANCH   7   8
ATOM      8  C   UNL d   1     -25.508  23.911  23.830  0.00  0.00     0.259 C 
ATOM      9  O   UNL d   1     -25.428  25.110  24.016  0.00  0.00    -0.267 OA
ATOM     10  N   UNL d   1     -24.426  23.216  23.427  0.00  0.00    -0.323 N 
ATOM     11  H   UNL d   1     -24.507  22.275  23.204  0.00  0.00     0.169 HD
BRANCH  10  12
ATOM     12  C   UNL d   1     -23.184  23.853  23.327  0.00  0.00     0.035 A 
ATOM     13  C   UNL d   1     -22.043  23.235  23.824  0.00  0.00     0.030 A 
ATOM     14  C   UNL d   1     -20.819  23.867  23.722  0.00  0.00     0.009 A 
ATOM     15  C   UNL d   1     -20.727  25.109  23.123  0.00  0.00    -0.062 A 
ATOM     16  C   UNL d   1     -21.863  25.729  22.631  0.00  0.00     0.009 A 
ATOM     17  C   UNL d   1     -19.389  25.792  23.008  0.00  0.00     0.048 C 
ATOM     18  C   UNL d   1     -23.089  25.103  22.729  0.00  0.00     0.030 A 
ENDBRANCH  10  12
ENDBRANCH   7   8
BRANCH   1  19
ATOM     19  O   UNL d   1     -27.017  22.843  21.695  0.00  0.00    -0.345 OA
BRANCH  19  20
ATOM     20  C   UNL d   1     -26.626  21.649  21.014  0.00  0.00     0.124 C 
ATOM     21  C   UNL d   1     -27.868  20.950  20.458  0.00  0.00     0.040 C 
BRANCH  20  22
ATOM     22  C   UNL d   1     -25.683  22.005  19.863  0.00  0.00     0.032 C 
BRANCH  22  23
ATOM     23  C   UNL d   1     -24.235  21.940  20.352  0.00  0.00    -0.002 C 
ATOM     24  C   UNL d   1     -23.438  23.096  19.742  0.00  0.00     0.005 C 
ENDBRANCH  22  23
ENDBRANCH  20  22
ENDBRANCH  19  20
ENDBRANCH   1  19
BRANCH   3  25
ATOM     25  N   UNL d   1     -30.419  21.251  24.661  0.00  0.00    -0.178 N 
ATOM     26  C   UNL d   1     -31.589  21.519  24.046  0.00  0.00     0.351 A 
ATOM     27  N   UNL d   1     -32.506  20.657  24.530  0.00  0.00    -0.289 N 
ATOM     28  O   UNL d   1     -31.782  22.379  23.205  0.00  0.00    -0.244 OA
ATOM     29  C   UNL d   1     -31.895  19.855  25.462  0.00  0.00     0.130 A 
ATOM     30  C   UNL d   1     -33.915  20.592  24.135  0.00  0.00     0.162 C 
ATOM     31  N   UNL d   1     -30.649  20.194  25.553  0.00  0.00    -0.149 NA
BRANCH  29  32
ATOM     32  C   UNL d   1     -32.564  18.757  26.249  0.00  0.00     0.076 C 
ATOM     33  C   UNL d   1     -31.500  17.895  26.929  0.00  0.00     0.013 C 
ENDBRANCH  29  32
ENDBRANCH   3  25
TORSDOF 8
ENDMDL
