MODEL 1
REMARK VINA RESULT:     -11.4      0.000      0.000
REMARK  7 active torsions:
REMARK  status: ('A' for Active; 'I' for Inactive)
REMARK    1  A    between atoms: C_6  and  C_7 
REMARK    2  A    between atoms: C_11  and  N_12 
REMARK       I    between atoms: N_12  and  C_13 
REMARK    3  A    between atoms: C_13  and  C_15 
REMARK    4  A    between atoms: C_19  and  N_20 
REMARK    5  A    between atoms: C_32  and  O_33 
REMARK    6  A    between atoms: O_33  and  C_34 
REMARK    7  A    between atoms: C_34  and  C_36 
ROOT
ATOM      1  C   UNL d   1     -24.072  24.754  23.608  0.00  0.00     0.068 A 
ATOM      2  C   UNL d   1     -25.037  25.165  24.535  0.00  0.00     0.064 A 
ATOM      3  C   UNL d   1     -26.266  24.546  24.568  0.00  0.00     0.146 A 
ATOM      4  F   UNL d   1     -27.198  24.947  25.460  0.00  0.00    -0.204 F 
ATOM      5  C   UNL d   1     -26.550  23.503  23.686  0.00  0.00     0.104 A 
ATOM      6  C   UNL d   1     -25.597  23.086  22.768  0.00  0.00     0.073 A 
ATOM      7  C   UNL d   1     -24.360  23.704  22.722  0.00  0.00     0.087 A 
ENDROOT
BRANCH   1   8
ATOM      8  C   UNL d   1     -22.757  25.416  23.566  0.00  0.00     0.259 C 
ATOM      9  N   UNL d   1     -21.678  24.806  24.094  0.00  0.00    -0.322 N 
ATOM     10  H   UNL d   1     -21.753  23.903  24.443  0.00  0.00     0.169 HD
ATOM     11  O   UNL d   1     -22.645  26.515  23.056  0.00  0.00    -0.267 OA
BRANCH   9  12
ATOM     12  C   UNL d   1     -20.449  25.471  24.137  0.00  0.00     0.056 A 
ATOM     13  C   UNL d   1     -20.140  26.294  25.214  0.00  0.00    -0.034 A 
ATOM     14  C   UNL d   1     -21.131  26.468  26.336  0.00  0.00     0.050 C 
ATOM     15  C   UNL d   1     -18.928  26.954  25.252  0.00  0.00     0.009 A 
ATOM     16  C   UNL d   1     -18.017  26.789  24.225  0.00  0.00     0.002 A 
ATOM     17  C   UNL d   1     -18.318  25.966  23.154  0.00  0.00     0.018 A 
ATOM     18  C   UNL d   1     -19.531  25.307  23.107  0.00  0.00     0.075 A 
BRANCH  18  19
ATOM     19  C   UNL d   1     -19.859  24.410  21.942  0.00  0.00     0.419 C 
ATOM     20  F   UNL d   1     -18.678  24.059  21.278  0.00  0.00    -0.166 F 
ATOM     21  F   UNL d   1     -20.494  23.254  22.406  0.00  0.00    -0.166 F 
ATOM     22  F   UNL d   1     -20.706  25.085  21.058  0.00  0.00    -0.166 F 
ENDBRANCH  18  19
ENDBRANCH   9  12
ENDBRANCH   1   8
BRANCH   7  23
ATOM     23  O   UNL d   1     -23.427  23.298  21.824  0.00  0.00    -0.336 OA
BRANCH  23  24
ATOM     24  C   UNL d   1     -23.780  23.383  20.442  0.00  0.00     0.232 C 
ATOM     25  C   UNL d   1     -22.543  23.751  19.621  0.00  0.00     0.049 C 
BRANCH  24  26
ATOM     26  C   UNL d   1     -24.320  22.032  19.969  0.00  0.00     0.413 C 
ATOM     27  F   UNL d   1     -25.690  22.144  19.704  0.00  0.00    -0.168 F 
ATOM     28  F   UNL d   1     -23.651  21.644  18.803  0.00  0.00    -0.168 F 
ATOM     29  F   UNL d   1     -24.115  21.073  20.967  0.00  0.00    -0.168 F 
ENDBRANCH  24  26
ENDBRANCH  23  24
ENDBRANCH   7  23
BRANCH   5  30
ATOM     30  N   UNL d   1     -27.796  22.876  23.729  0.00  0.00    -0.178 N 
ATOM     31  C   UNL d   1     -28.266  22.095  24.730  0.00  0.00     0.351 A 
ATOM     32  N   UNL d   1     -29.495  21.700  24.384  0.00  0.00    -0.282 N 
ATOM     33  O   UNL d   1     -27.679  21.809  25.758  0.00  0.00    -0.244 OA
ATOM     34  C   UNL d   1     -29.791  22.233  23.136  0.00  0.00     0.155 A 
ATOM     35  C   UNL d   1     -30.445  20.850  25.117  0.00  0.00     0.137 C 
ATOM     36  N   UNL d   1     -28.791  22.933  22.739  0.00  0.00    -0.147 NA
ATOM     37  C   UNL d   1     -31.110  21.969  22.439  0.00  0.00     0.248 C 
ATOM     38  O   UNL d   1     -32.142  22.577  23.224  0.00  0.00    -0.384 OA
ATOM     39  C   UNL d   1     -32.619  21.829  24.322  0.00  0.00     0.169 C 
ATOM     40  C   UNL d   1     -31.657  21.716  25.482  0.00  0.00     0.046 C 
ENDBRANCH   5  30
TORSDOF 7
ENDMDL
