MODEL 1
REMARK VINA RESULT:     -10.8      0.000      0.000
REMARK  7 active torsions:
REMARK  status: ('A' for Active; 'I' for Inactive)
REMARK    1  A    between atoms: C_2  and  O_3 
REMARK    2  A    between atoms: O_3  and  C_4 
REMARK    3  A    between atoms: C_8  and  C_9 
REMARK    4  A    between atoms: C_13  and  N_14 
REMARK    5  A    between atoms: N_14  and  C_15 
REMARK    6  A    between atoms: C_21  and  C_22 
REMARK    7  A    between atoms: C_22  and  O_24 
ROOT
ATOM      1  C   UNL d   1     -26.194  23.429  23.942  0.00  0.00     0.067 A 
ATOM      2  C   UNL d   1     -26.527  23.443  25.296  0.00  0.00     0.041 A 
ATOM      3  C   UNL d   1     -27.596  22.684  25.734  0.00  0.00    -0.032 A 
ATOM      4  C   UNL d   1     -27.988  22.671  27.189  0.00  0.00     0.050 C 
ATOM      5  C   UNL d   1     -28.304  21.931  24.798  0.00  0.00     0.056 A 
ATOM      6  C   UNL d   1     -27.911  21.962  23.464  0.00  0.00     0.147 A 
ATOM      7  N   UNL d   1     -26.891  22.700  23.080  0.00  0.00    -0.258 NA
ENDROOT
BRANCH   5   8
ATOM      8  N   UNL d   1     -29.391  21.149  25.196  0.00  0.00    -0.354 N 
ATOM      9  H   UNL d   1     -29.303  20.544  25.948  0.00  0.00     0.166 HD
BRANCH   8  10
ATOM     10  C   UNL d   1     -30.597  21.236  24.511  0.00  0.00     0.049 A 
ATOM     11  C   UNL d   1     -31.663  20.388  24.849  0.00  0.00     0.064 A 
ATOM     12  C   UNL d   1     -32.870  20.486  24.152  0.00  0.00     0.027 A 
ATOM     13  C   UNL d   1     -33.006  21.411  23.140  0.00  0.00    -0.061 A 
ATOM     14  C   UNL d   1     -31.951  22.246  22.807  0.00  0.00     0.009 A 
ATOM     15  C   UNL d   1     -34.309  21.514  22.389  0.00  0.00     0.048 C 
ATOM     16  C   UNL d   1     -30.755  22.166  23.491  0.00  0.00     0.031 A 
BRANCH  11  17
ATOM     17  C   UNL d   1     -31.511  19.402  25.932  0.00  0.00     0.178 C 
ATOM     18  O   UNL d   1     -31.865  18.252  25.761  0.00  0.00    -0.646 OA
BRANCH  17  19
ATOM     19  O   UNL d   1     -30.977  19.774  27.113  0.00  0.00    -0.773 OA
ATOM     20  H   UNL d   1     -31.120  20.689  27.391  0.00  0.00     0.167 HD
ENDBRANCH  17  19
ENDBRANCH  11  17
ENDBRANCH   8  10
ENDBRANCH   5   8
BRANCH   1  21
ATOM     21  C   UNL d   1     -25.049  24.239  23.461  0.00  0.00    -0.005 A 
ATOM     22  C   UNL d   1     -24.915  25.568  23.860  0.00  0.00     0.014 A 
ATOM     23  C   UNL d   1     -23.848  26.319  23.411  0.00  0.00     0.004 A 
ATOM     24  C   UNL d   1     -22.908  25.758  22.567  0.00  0.00     0.037 A 
ATOM     25  C   UNL d   1     -23.034  24.435  22.165  0.00  0.00     0.069 A 
ATOM     26  C   UNL d   1     -24.099  23.672  22.613  0.00  0.00     0.050 A 
BRANCH  25  27
ATOM     27  O   UNL d   1     -22.108  23.887  21.334  0.00  0.00    -0.351 OA
BRANCH  27  28
ATOM     28  C   UNL d   1     -20.962  24.682  21.026  0.00  0.00     0.171 C 
ATOM     29  C   UNL d   1     -19.715  24.038  21.637  0.00  0.00     0.034 C 
ENDBRANCH  27  28
ENDBRANCH  25  27
ENDBRANCH   1  21
TORSDOF 7
ENDMDL
