MODEL 1
REMARK VINA RESULT:      -8.1      0.000      0.000
REMARK  6 active torsions:
REMARK  status: ('A' for Active; 'I' for Inactive)
REMARK    1  A    between atoms: C_2  and  O_3 
REMARK    2  A    between atoms: O_3  and  C_4 
REMARK    3  A    between atoms: C_4  and  C_6 
REMARK    4  A    between atoms: C_8  and  N_9 
REMARK    5  A    between atoms: N_9  and  C_10 
REMARK    6  A    between atoms: C_19  and  C_20 
ROOT
ATOM      1  C   UNL d   1     -24.105  24.578  22.967  0.00  0.00     0.109 A 
ATOM      2  S   UNL d   1     -25.535  23.809  23.652  0.00  0.00    -0.044 SA
ATOM      3  C   UNL d   1     -25.471  22.592  22.453  0.00  0.00     0.172 A 
ATOM      4  N   UNL d   1     -24.463  22.793  21.652  0.00  0.00    -0.227 NA
ATOM      5  C   UNL d   1     -23.713  23.839  21.882  0.00  0.00     0.068 A 
ENDROOT
BRANCH   3   6
ATOM      6  N   UNL d   1     -26.362  21.544  22.349  0.00  0.00    -0.335 N 
ATOM      7  H   UNL d   1     -26.037  20.649  22.162  0.00  0.00     0.168 HD
BRANCH   6   8
ATOM      8  C   UNL d   1     -27.730  21.771  22.513  0.00  0.00     0.037 A 
ATOM      9  C   UNL d   1     -28.523  22.069  21.413  0.00  0.00     0.072 A 
ATOM     10  C   UNL d   1     -29.879  22.287  21.579  0.00  0.00     0.124 A 
ATOM     11  C   UNL d   1     -30.442  22.219  22.842  0.00  0.00    -0.023 A 
ATOM     12  F   UNL d   1     -30.653  22.572  20.509  0.00  0.00    -0.205 F 
ATOM     13  C   UNL d   1     -29.653  21.928  23.939  0.00  0.00     0.012 A 
ATOM     14  C   UNL d   1     -31.919  22.463  23.022  0.00  0.00     0.051 C 
ATOM     15  C   UNL d   1     -28.300  21.704  23.779  0.00  0.00     0.030 A 
ENDBRANCH   6   8
ENDBRANCH   3   6
BRANCH   1  16
ATOM     16  C   UNL d   1     -23.476  25.753  23.448  0.00  0.00     0.302 C 
ATOM     17  O   UNL d   1     -23.906  26.846  23.133  0.00  0.00    -0.259 OA
BRANCH  16  18
ATOM     18  O   UNL d   1     -22.401  25.658  24.258  0.00  0.00    -0.317 OA
BRANCH  18  19
ATOM     19  C   UNL d   1     -21.482  26.754  24.247  0.00  0.00     0.174 C 
ATOM     20  C   UNL d   1     -21.614  27.543  25.551  0.00  0.00     0.034 C 
ENDBRANCH  18  19
ENDBRANCH  16  18
ENDBRANCH   1  16
BRANCH   5  21
ATOM     21  C   UNL d   1     -22.520  24.197  21.034  0.00  0.00    -0.005 C 
ATOM     22  C   UNL d   1     -21.236  23.902  21.810  0.00  0.00     0.021 C 
ATOM     23  C   UNL d   1     -22.542  23.367  19.749  0.00  0.00     0.021 C 
ATOM     24  C   UNL d   1     -22.573  25.684  20.682  0.00  0.00     0.021 C 
ENDBRANCH   5  21
TORSDOF 6
ENDMDL
