MODEL 1
REMARK VINA RESULT:     -11.6      0.000      0.000
REMARK  4 active torsions:
REMARK  status: ('A' for Active; 'I' for Inactive)
REMARK       I    between atoms: N_1  and  C_2 
REMARK    1  A    between atoms: C_2  and  C_4 
REMARK    2  A    between atoms: C_11  and  C_12 
REMARK    3  A    between atoms: C_15  and  C_16 
REMARK    4  A    between atoms: C_19  and  N_20 
ROOT
ATOM      1  C   UNL d   1     -32.463  21.534  23.188  0.00  0.00     0.062 A 
ATOM      2  C   UNL d   1     -33.377  20.994  24.090  0.00  0.00     0.020 A 
ATOM      3  C   UNL d   1     -32.953  20.531  25.321  0.00  0.00     0.003 A 
ATOM      4  C   UNL d   1     -31.619  20.596  25.678  0.00  0.00     0.032 A 
ATOM      5  C   UNL d   1     -30.687  21.130  24.801  0.00  0.00     0.064 A 
ATOM      6  N   UNL d   1     -29.321  21.329  24.860  0.00  0.00    -0.338 N 
ATOM      7  H   UNL d   1     -28.737  21.104  25.601  0.00  0.00     0.167 HD
ATOM      8  C   UNL d   1     -28.948  21.902  23.676  0.00  0.00     0.139 A 
ATOM      9  N   UNL d   1     -30.004  22.066  22.911  0.00  0.00    -0.227 NA
ATOM     10  C   UNL d   1     -31.098  21.606  23.542  0.00  0.00     0.101 A 
ENDROOT
BRANCH   8  11
ATOM     11  C   UNL d   1     -27.568  22.285  23.313  0.00  0.00     0.010 A 
ATOM     12  C   UNL d   1     -26.887  23.242  24.070  0.00  0.00     0.016 A 
ATOM     13  C   UNL d   1     -25.599  23.595  23.735  0.00  0.00     0.013 A 
ATOM     14  C   UNL d   1     -24.978  23.006  22.634  0.00  0.00    -0.025 A 
ATOM     15  C   UNL d   1     -25.657  22.049  21.878  0.00  0.00     0.013 A 
ATOM     16  C   UNL d   1     -26.943  21.692  22.213  0.00  0.00     0.016 A 
BRANCH  14  17
ATOM     17  C   UNL d   1     -23.593  23.391  22.271  0.00  0.00    -0.008 A 
ATOM     18  C   UNL d   1     -23.297  23.821  20.980  0.00  0.00     0.131 A 
ATOM     19  N   UNL d   1     -22.067  24.164  20.652  0.00  0.00    -0.243 NA
ATOM     20  C   UNL d   1     -21.073  24.116  21.527  0.00  0.00     0.120 A 
ATOM     21  C   UNL d   1     -21.294  23.696  22.836  0.00  0.00     0.051 A 
ATOM     22  C   UNL d   1     -22.567  23.327  23.221  0.00  0.00     0.017 A 
BRANCH  20  23
ATOM     23  N   UNL d   1     -19.795  24.489  21.133  0.00  0.00    -0.384 N 
ATOM     24  H   UNL d   1     -19.536  25.424  21.148  0.00  0.00     0.157 HD
ATOM     25  H   UNL d   1     -19.160  23.816  20.842  0.00  0.00     0.157 HD
ENDBRANCH  20  23
ENDBRANCH  14  17
ENDBRANCH   8  11
BRANCH   1  26
ATOM     26  C   UNL d   1     -32.917  22.028  21.876  0.00  0.00     0.251 C 
ATOM     27  N   UNL d   1     -32.074  22.019  20.825  0.00  0.00    -0.366 N 
ATOM     28  H   UNL d   1     -31.168  21.689  20.931  0.00  0.00     0.159 HD
ATOM     29  H   UNL d   1     -32.373  22.344  19.961  0.00  0.00     0.159 HD
ATOM     30  O   UNL d   1     -34.053  22.441  21.741  0.00  0.00    -0.268 OA
ENDBRANCH   1  26
TORSDOF 4
ENDMDL
