MODEL 1
REMARK VINA RESULT:      -9.9      0.000      0.000
REMARK  7 active torsions:
REMARK  status: ('A' for Active; 'I' for Inactive)
REMARK    1  A    between atoms: C_2  and  C_3 
REMARK    2  A    between atoms: C_3  and  O_5 
REMARK    3  A    between atoms: O_5  and  C_6 
REMARK    4  A    between atoms: C_8  and  N_9 
REMARK       I    between atoms: N_9  and  C_10 
REMARK    5  A    between atoms: C_10  and  C_12 
REMARK    6  A    between atoms: C_15  and  O_17 
REMARK    7  A    between atoms: C_21  and  C_22 
ROOT
ATOM      1  C   UNL d   1     -31.773  21.172  23.990  0.00  0.00     0.141 C 
ATOM      2  C   UNL d   1     -32.061  20.371  25.142  0.00  0.00     0.107 C 
ATOM      3  N   UNL d   1     -32.288  19.736  26.055  0.00  0.00    -0.191 NA
ATOM      4  C   UNL d   1     -32.654  21.213  22.951  0.00  0.00     0.065 C 
ATOM      5  C   UNL d   1     -33.931  20.415  23.014  0.00  0.00     0.077 C 
ENDROOT
BRANCH   1   6
ATOM      6  C   UNL d   1     -30.528  21.952  23.929  0.00  0.00     0.269 C 
ATOM      7  N   UNL d   1     -29.357  21.378  24.270  0.00  0.00    -0.320 N 
ATOM      8  H   UNL d   1     -29.345  20.480  24.636  0.00  0.00     0.169 HD
ATOM      9  O   UNL d   1     -30.555  23.114  23.569  0.00  0.00    -0.266 OA
BRANCH   7  10
ATOM     10  C   UNL d   1     -28.159  22.079  24.097  0.00  0.00     0.076 A 
ATOM     11  C   UNL d   1     -27.609  22.209  22.829  0.00  0.00     0.070 A 
ATOM     12  C   UNL d   1     -26.424  22.903  22.656  0.00  0.00     0.082 A 
ATOM     13  C   UNL d   1     -25.778  23.465  23.762  0.00  0.00     0.011 A 
ATOM     14  C   UNL d   1     -26.337  23.335  25.032  0.00  0.00     0.059 A 
ATOM     15  C   UNL d   1     -27.519  22.643  25.198  0.00  0.00     0.144 A 
ATOM     16  F   UNL d   1     -28.057  22.513  26.429  0.00  0.00    -0.204 F 
BRANCH  12  17
ATOM     17  O   UNL d   1     -25.885  23.031  21.415  0.00  0.00    -0.345 OA
BRANCH  17  18
ATOM     18  C   UNL d   1     -25.524  21.826  20.737  0.00  0.00     0.124 C 
ATOM     19  C   UNL d   1     -24.651  20.968  21.655  0.00  0.00     0.040 C 
BRANCH  18  20
ATOM     20  C   UNL d   1     -24.744  22.170  19.466  0.00  0.00     0.027 C 
ATOM     21  C   UNL d   1     -23.676  23.216  19.792  0.00  0.00     0.007 C 
ENDBRANCH  18  20
ENDBRANCH  17  18
ENDBRANCH  12  17
BRANCH  13  22
ATOM     22  C   UNL d   1     -24.504  24.202  23.581  0.00  0.00    -0.020 A 
ATOM     23  C   UNL d   1     -23.300  23.507  23.496  0.00  0.00     0.058 A 
ATOM     24  C   UNL d   1     -22.116  24.199  23.321  0.00  0.00     0.155 A 
ATOM     25  C   UNL d   1     -22.126  25.585  23.245  0.00  0.00     0.154 A 
ATOM     26  F   UNL d   1     -20.948  23.527  23.233  0.00  0.00    -0.203 F 
ATOM     27  C   UNL d   1     -23.321  26.278  23.336  0.00  0.00     0.046 A 
ATOM     28  F   UNL d   1     -20.967  26.258  23.080  0.00  0.00    -0.203 F 
ATOM     29  C   UNL d   1     -24.508  25.594  23.503  0.00  0.00     0.015 A 
ENDBRANCH  13  22
ENDBRANCH   7  10
ENDBRANCH   1   6
BRANCH   4  30
ATOM     30  O   UNL d   1     -32.385  21.965  21.870  0.00  0.00    -0.364 OA
ATOM     31  H   UNL d   1     -32.580  21.576  21.006  0.00  0.00     0.217 HD
ENDBRANCH   4  30
TORSDOF 7
ENDMDL
