MODEL 1
REMARK VINA RESULT:      -9.9      0.000      0.000
REMARK  7 active torsions:
REMARK  status: ('A' for Active; 'I' for Inactive)
REMARK    1  A    between atoms: C_2  and  C_3 
REMARK    2  A    between atoms: N_5  and  C_6 
REMARK    3  A    between atoms: C_8  and  O_9 
REMARK    4  A    between atoms: O_9  and  C_10 
REMARK    5  A    between atoms: C_10  and  C_12 
REMARK    6  A    between atoms: C_16  and  C_17 
REMARK       I    between atoms: C_17  and  N_19 
REMARK    7  A    between atoms: N_19  and  C_20 
ROOT
ATOM      1  C   UNL d   1     -26.783  23.373  23.749  0.00  0.00     0.104 A 
ATOM      2  C   UNL d   1     -25.916  22.868  22.788  0.00  0.00     0.073 A 
ATOM      3  C   UNL d   1     -24.654  23.416  22.638  0.00  0.00     0.087 A 
ATOM      4  C   UNL d   1     -24.254  24.482  23.457  0.00  0.00     0.068 A 
ATOM      5  C   UNL d   1     -25.133  24.984  24.422  0.00  0.00     0.064 A 
ATOM      6  C   UNL d   1     -26.387  24.432  24.565  0.00  0.00     0.146 A 
ATOM      7  F   UNL d   1     -27.235  24.917  25.497  0.00  0.00    -0.204 F 
ENDROOT
BRANCH   4   8
ATOM      8  C   UNL d   1     -22.912  25.070  23.303  0.00  0.00     0.259 C 
ATOM      9  O   UNL d   1     -22.762  26.072  22.630  0.00  0.00    -0.267 OA
ATOM     10  N   UNL d   1     -21.853  24.498  23.908  0.00  0.00    -0.320 N 
ATOM     11  H   UNL d   1     -21.981  23.734  24.491  0.00  0.00     0.169 HD
BRANCH  10  12
ATOM     12  C   UNL d   1     -20.565  25.006  23.692  0.00  0.00     0.073 A 
ATOM     13  C   UNL d   1     -19.776  24.492  22.670  0.00  0.00     0.143 A 
ATOM     14  C   UNL d   1     -18.508  25.001  22.457  0.00  0.00     0.044 A 
ATOM     15  F   UNL d   1     -20.248  23.502  21.882  0.00  0.00    -0.204 F 
ATOM     16  C   UNL d   1     -18.021  26.011  23.267  0.00  0.00     0.003 A 
ATOM     17  C   UNL d   1     -18.803  26.519  24.288  0.00  0.00     0.002 A 
ATOM     18  C   UNL d   1     -20.073  26.020  24.503  0.00  0.00     0.033 A 
ENDBRANCH  10  12
ENDBRANCH   4   8
BRANCH   3  19
ATOM     19  O   UNL d   1     -23.806  22.924  21.699  0.00  0.00    -0.336 OA
BRANCH  19  20
ATOM     20  C   UNL d   1     -23.944  23.433  20.370  0.00  0.00     0.232 C 
ATOM     21  C   UNL d   1     -22.575  23.881  19.853  0.00  0.00     0.049 C 
BRANCH  20  22
ATOM     22  C   UNL d   1     -24.501  22.336  19.460  0.00  0.00     0.413 C 
ATOM     23  F   UNL d   1     -23.658  21.221  19.505  0.00  0.00    -0.168 F 
ATOM     24  F   UNL d   1     -25.780  21.974  19.896  0.00  0.00    -0.168 F 
ATOM     25  F   UNL d   1     -24.574  22.814  18.147  0.00  0.00    -0.168 F 
ENDBRANCH  20  22
ENDBRANCH  19  20
ENDBRANCH   3  19
BRANCH   1  26
ATOM     26  N   UNL d   1     -28.054  22.814  23.901  0.00  0.00    -0.178 N 
ATOM     27  N   UNL d   1     -29.132  22.950  23.016  0.00  0.00    -0.149 NA
ATOM     28  C   UNL d   1     -30.135  22.290  23.499  0.00  0.00     0.130 A 
ATOM     29  N   UNL d   1     -29.756  21.714  24.687  0.00  0.00    -0.289 N 
ATOM     30  C   UNL d   1     -28.470  22.038  24.923  0.00  0.00     0.351 A 
ATOM     31  C   UNL d   1     -30.604  20.884  25.546  0.00  0.00     0.162 C 
ATOM     32  O   UNL d   1     -27.804  21.695  25.884  0.00  0.00    -0.244 OA
BRANCH  28  33
ATOM     33  C   UNL d   1     -31.497  22.174  22.863  0.00  0.00     0.076 C 
ATOM     34  C   UNL d   1     -31.351  22.183  21.341  0.00  0.00     0.013 C 
ENDBRANCH  28  33
ENDBRANCH   1  26
TORSDOF 7
ENDMDL
