MODEL 1
REMARK VINA RESULT:      -9.9      0.000      0.000
REMARK  8 active torsions:
REMARK  status: ('A' for Active; 'I' for Inactive)
REMARK    1  A    between atoms: C_2  and  C_3 
REMARK    2  A    between atoms: C_3  and  C_4 
REMARK    3  A    between atoms: C_4  and  O_6 
REMARK    4  A    between atoms: O_6  and  C_7 
REMARK    5  A    between atoms: C_9  and  N_10 
REMARK    6  A    between atoms: N_14  and  C_15 
REMARK    7  A    between atoms: C_23  and  C_24 
REMARK       I    between atoms: C_24  and  N_26 
REMARK    8  A    between atoms: N_26  and  C_27 
ROOT
ATOM      1  C   UNL d   1     -26.361  23.150  23.403  0.00  0.00     0.087 A 
ATOM      2  C   UNL d   1     -27.735  23.001  23.480  0.00  0.00     0.073 A 
ATOM      3  C   UNL d   1     -28.395  22.169  22.586  0.00  0.00     0.104 A 
ATOM      4  C   UNL d   1     -27.678  21.480  21.608  0.00  0.00     0.146 A 
ATOM      5  F   UNL d   1     -28.327  20.668  20.745  0.00  0.00    -0.204 F 
ATOM      6  C   UNL d   1     -26.312  21.622  21.522  0.00  0.00     0.064 A 
ATOM      7  C   UNL d   1     -25.638  22.457  22.420  0.00  0.00     0.068 A 
ENDROOT
BRANCH   7   8
ATOM      8  C   UNL d   1     -24.176  22.611  22.333  0.00  0.00     0.259 C 
ATOM      9  O   UNL d   1     -23.462  21.627  22.295  0.00  0.00    -0.267 OA
ATOM     10  N   UNL d   1     -23.629  23.842  22.294  0.00  0.00    -0.322 N 
ATOM     11  H   UNL d   1     -24.192  24.626  22.387  0.00  0.00     0.169 HD
BRANCH  10  12
ATOM     12  C   UNL d   1     -22.250  23.989  22.118  0.00  0.00     0.041 A 
ATOM     13  C   UNL d   1     -21.738  24.324  20.871  0.00  0.00    -0.035 A 
ATOM     14  C   UNL d   1     -20.375  24.470  20.701  0.00  0.00     0.009 A 
ATOM     15  C   UNL d   1     -22.670  24.529  19.705  0.00  0.00     0.050 C 
ATOM     16  C   UNL d   1     -19.520  24.283  21.771  0.00  0.00     0.001 A 
ATOM     17  C   UNL d   1     -20.026  23.949  23.015  0.00  0.00     0.002 A 
ATOM     18  C   UNL d   1     -21.388  23.807  23.192  0.00  0.00     0.030 A 
ENDBRANCH  10  12
ENDBRANCH   7   8
BRANCH   1  19
ATOM     19  O   UNL d   1     -25.715  23.962  24.278  0.00  0.00    -0.345 OA
BRANCH  19  20
ATOM     20  C   UNL d   1     -26.049  25.350  24.242  0.00  0.00     0.124 C 
ATOM     21  C   UNL d   1     -26.387  25.830  25.656  0.00  0.00     0.040 C 
BRANCH  20  22
ATOM     22  C   UNL d   1     -24.860  26.149  23.704  0.00  0.00     0.032 C 
BRANCH  22  23
ATOM     23  C   UNL d   1     -23.766  26.215  24.771  0.00  0.00    -0.002 C 
ATOM     24  C   UNL d   1     -22.579  27.020  24.237  0.00  0.00     0.005 C 
ENDBRANCH  22  23
ENDBRANCH  20  22
ENDBRANCH  19  20
ENDBRANCH   1  19
BRANCH   3  25
ATOM     25  N   UNL d   1     -29.781  22.022  22.667  0.00  0.00    -0.178 N 
ATOM     26  C   UNL d   1     -30.667  22.232  21.671  0.00  0.00     0.351 A 
ATOM     27  N   UNL d   1     -31.895  21.976  22.163  0.00  0.00    -0.280 N 
ATOM     28  O   UNL d   1     -30.404  22.584  20.535  0.00  0.00    -0.244 OA
ATOM     29  C   UNL d   1     -31.766  21.614  23.481  0.00  0.00     0.127 A 
ATOM     30  N   UNL d   1     -30.511  21.636  23.799  0.00  0.00    -0.149 NA
ATOM     31  C   UNL d   1     -32.898  21.250  24.406  0.00  0.00     0.093 C 
BRANCH  27  32
ATOM     32  C   UNL d   1     -33.155  22.075  21.421  0.00  0.00     0.088 C 
ATOM     33  C   UNL d   1     -33.713  20.672  21.173  0.00  0.00     0.032 C 
ATOM     34  C   UNL d   1     -34.164  22.888  22.236  0.00  0.00     0.032 C 
ENDBRANCH  27  32
ENDBRANCH   3  25
TORSDOF 8
ENDMDL
