MODEL 1
REMARK VINA RESULT:     -10.8      0.000      0.000
REMARK  5 active torsions:
REMARK  status: ('A' for Active; 'I' for Inactive)
REMARK    1  A    between atoms: C_3  and  C_4 
REMARK       I    between atoms: C_4  and  N_6 
REMARK    2  A    between atoms: N_6  and  C_7 
REMARK    3  A    between atoms: C_10  and  C_11 
REMARK    4  A    between atoms: C_19  and  O_20 
REMARK    5  A    between atoms: C_19  and  C_21 
ROOT
ATOM      1  N   UNL d   1     -31.311  21.712  25.998  0.00  0.00    -0.191 NA
ATOM      2  C   UNL d   1     -31.124  21.877  24.890  0.00  0.00     0.107 C 
ATOM      3  C   UNL d   1     -30.889  22.086  23.492  0.00  0.00     0.141 C 
ATOM      4  C   UNL d   1     -31.913  21.958  22.602  0.00  0.00     0.073 C 
ENDROOT
BRANCH   3   5
ATOM      5  C   UNL d   1     -29.543  22.439  23.019  0.00  0.00     0.269 C 
ATOM      6  O   UNL d   1     -29.402  23.299  22.171  0.00  0.00    -0.266 OA
ATOM      7  N   UNL d   1     -28.464  21.808  23.524  0.00  0.00    -0.322 N 
ATOM      8  H   UNL d   1     -28.579  21.069  24.143  0.00  0.00     0.169 HD
BRANCH   7   9
ATOM      9  C   UNL d   1     -27.179  22.218  23.156  0.00  0.00     0.035 A 
ATOM     10  C   UNL d   1     -26.535  23.214  23.880  0.00  0.00     0.030 A 
ATOM     11  C   UNL d   1     -25.267  23.617  23.522  0.00  0.00     0.014 A 
ATOM     12  C   UNL d   1     -24.633  23.032  22.427  0.00  0.00    -0.026 A 
ATOM     13  C   UNL d   1     -25.282  22.032  21.701  0.00  0.00     0.014 A 
ATOM     14  C   UNL d   1     -26.549  21.629  22.066  0.00  0.00     0.030 A 
BRANCH  12  15
ATOM     15  C   UNL d   1     -23.271  23.468  22.036  0.00  0.00    -0.026 A 
ATOM     16  C   UNL d   1     -23.041  23.989  20.764  0.00  0.00     0.012 A 
ATOM     17  C   UNL d   1     -21.772  24.398  20.408  0.00  0.00     0.001 A 
ATOM     18  C   UNL d   1     -20.727  24.280  21.306  0.00  0.00     0.000 A 
ATOM     19  C   UNL d   1     -20.949  23.763  22.569  0.00  0.00     0.001 A 
ATOM     20  C   UNL d   1     -22.215  23.357  22.938  0.00  0.00     0.012 A 
ENDBRANCH  12  15
ENDBRANCH   7   9
ENDBRANCH   3   5
BRANCH   4  21
ATOM     21  O   UNL d   1     -31.691  22.154  21.291  0.00  0.00    -0.363 OA
ATOM     22  H   UNL d   1     -32.462  22.355  20.742  0.00  0.00     0.217 HD
ENDBRANCH   4  21
BRANCH   4  23
ATOM     23  C   UNL d   1     -33.293  21.597  23.088  0.00  0.00     0.044 A 
ATOM     24  C   UNL d   1     -34.259  20.980  22.074  0.00  0.00     0.012 A 
ATOM     25  C   UNL d   1     -33.645  20.109  23.172  0.00  0.00     0.012 A 
ENDBRANCH   4  23
TORSDOF 5
ENDMDL
