MODEL 1
REMARK VINA RESULT:      -9.8      0.000      0.000
REMARK  9 active torsions:
REMARK  status: ('A' for Active; 'I' for Inactive)
REMARK    1  A    between atoms: C_2  and  N_3 
REMARK    2  A    between atoms: C_4  and  C_5 
REMARK    3  A    between atoms: C_5  and  O_7 
REMARK    4  A    between atoms: N_9  and  C_10 
REMARK    5  A    between atoms: C_13  and  C_14 
REMARK       I    between atoms: C_14  and  N_16 
REMARK    6  A    between atoms: N_16  and  C_17 
REMARK    7  A    between atoms: C_25  and  O_26 
REMARK    8  A    between atoms: O_26  and  C_27 
REMARK    9  A    between atoms: C_27  and  C_29 
ROOT
ATOM      1  C   UNL d   1     -28.563  22.191  22.621  0.00  0.00     0.066 A 
ATOM      2  C   UNL d   1     -27.966  21.577  21.522  0.00  0.00     0.033 A 
ATOM      3  C   UNL d   1     -26.624  21.701  21.308  0.00  0.00     0.022 A 
ATOM      4  C   UNL d   1     -25.840  22.453  22.188  0.00  0.00     0.065 A 
ATOM      5  C   UNL d   1     -26.437  23.079  23.292  0.00  0.00     0.087 A 
ATOM      6  C   UNL d   1     -27.799  22.945  23.501  0.00  0.00     0.069 A 
ENDROOT
BRANCH   1   7
ATOM      7  N   UNL d   1     -29.936  22.051  22.835  0.00  0.00    -0.180 N 
ATOM      8  N   UNL d   1     -30.952  22.330  21.911  0.00  0.00    -0.137 NA
ATOM      9  C   UNL d   1     -32.099  22.075  22.480  0.00  0.00     0.228 A 
ATOM     10  N   UNL d   1     -31.858  21.630  23.769  0.00  0.00    -0.276 N 
ATOM     11  C   UNL d   1     -30.525  21.616  23.969  0.00  0.00     0.351 A 
ATOM     12  O   UNL d   1     -29.955  21.275  24.989  0.00  0.00    -0.244 OA
BRANCH   9  13
ATOM     13  C   UNL d   1     -33.424  22.234  21.856  0.00  0.00     0.215 C 
ATOM     14  O   UNL d   1     -33.728  21.556  20.894  0.00  0.00    -0.644 OA
BRANCH  13  15
ATOM     15  O   UNL d   1     -34.299  23.131  22.353  0.00  0.00    -0.770 OA
ATOM     16  H   UNL d   1     -35.009  23.424  21.765  0.00  0.00     0.168 HD
ENDBRANCH  13  15
ENDBRANCH   9  13
BRANCH  10  17
ATOM     17  C   UNL d   1     -32.877  21.237  24.746  0.00  0.00     0.131 C 
ATOM     18  C   UNL d   1     -33.144  19.735  24.628  0.00  0.00     0.027 C 
ENDBRANCH  10  17
ENDBRANCH   1   7
BRANCH   5  19
ATOM     19  O   UNL d   1     -25.684  23.810  24.152  0.00  0.00    -0.340 OA
BRANCH  19  20
ATOM     20  C   UNL d   1     -26.003  25.198  24.275  0.00  0.00     0.190 C 
ATOM     21  C   UNL d   1     -24.800  26.038  23.840  0.00  0.00     0.046 C 
BRANCH  20  22
ATOM     22  C   UNL d   1     -26.346  25.515  25.732  0.00  0.00     0.381 C 
ATOM     23  F   UNL d   1     -27.053  26.720  25.792  0.00  0.00    -0.212 F 
ATOM     24  F   UNL d   1     -27.131  24.485  26.262  0.00  0.00    -0.212 F 
ENDBRANCH  20  22
ENDBRANCH  19  20
ENDBRANCH   5  19
BRANCH   4  25
ATOM     25  C   UNL d   1     -24.391  22.589  21.956  0.00  0.00     0.259 C 
ATOM     26  O   UNL d   1     -23.729  21.613  21.656  0.00  0.00    -0.267 OA
ATOM     27  N   UNL d   1     -23.799  23.794  22.076  0.00  0.00    -0.319 N 
ATOM     28  H   UNL d   1     -24.310  24.555  22.393  0.00  0.00     0.169 HD
BRANCH  27  29
ATOM     29  C   UNL d   1     -22.448  23.948  21.741  0.00  0.00     0.096 A 
ATOM     30  C   UNL d   1     -21.463  23.686  22.683  0.00  0.00     0.064 A 
ATOM     31  C   UNL d   1     -20.130  23.839  22.348  0.00  0.00     0.026 A 
ATOM     32 CL   UNL d   1     -21.904  23.166  24.280  0.00  0.00    -0.082 Cl
ATOM     33  C   UNL d   1     -19.777  24.252  21.077  0.00  0.00     0.005 A 
ATOM     34  C   UNL d   1     -20.755  24.514  20.135  0.00  0.00     0.045 A 
ATOM     35  C   UNL d   1     -22.091  24.357  20.461  0.00  0.00     0.144 A 
ATOM     36  F   UNL d   1     -23.046  24.608  19.539  0.00  0.00    -0.204 F 
ENDBRANCH  27  29
ENDBRANCH   4  25
TORSDOF 9
ENDMDL
