MODEL 1
REMARK VINA RESULT:     -12.6      0.000      0.000
REMARK  5 active torsions:
REMARK  status: ('A' for Active; 'I' for Inactive)
REMARK    1  A    between atoms: C_3  and  C_4 
REMARK       I    between atoms: C_4  and  N_6 
REMARK    2  A    between atoms: N_6  and  C_7 
REMARK    3  A    between atoms: C_11  and  C_12 
REMARK    4  A    between atoms: C_30  and  C_31 
REMARK    5  A    between atoms: C_31  and  O_33 
ROOT
ATOM      1  C   UNL d   1     -28.873  22.495  22.621  0.00  0.00     0.275 C 
ATOM      2  O   UNL d   1     -28.719  23.561  22.058  0.00  0.00    -0.266 OA
ATOM      3  N   UNL d   1     -27.802  21.755  22.969  0.00  0.00    -0.317 N 
ATOM      4  H   UNL d   1     -27.924  20.866  23.335  0.00  0.00     0.169 HD
ENDROOT
BRANCH   1   5
ATOM      5  C   UNL d   1     -30.239  22.010  22.928  0.00  0.00     0.132 A 
ATOM      6  C   UNL d   1     -31.194  21.964  21.902  0.00  0.00    -0.010 A 
ATOM      7  C   UNL d   1     -30.832  22.401  20.506  0.00  0.00     0.052 C 
ATOM      8  C   UNL d   1     -32.476  21.510  22.182  0.00  0.00     0.058 A 
ATOM      9  C   UNL d   1     -32.761  21.111  23.514  0.00  0.00     0.013 A 
ATOM     10  C   UNL d   1     -31.736  21.190  24.493  0.00  0.00     0.069 A 
ATOM     11  C   UNL d   1     -34.030  20.643  23.876  0.00  0.00     0.057 A 
ATOM     12  N   UNL d   1     -30.525  21.629  24.157  0.00  0.00    -0.242 NA
ATOM     13  C   UNL d   1     -32.020  20.793  25.816  0.00  0.00     0.035 A 
ATOM     14  C   UNL d   1     -33.263  20.343  26.132  0.00  0.00     0.044 A 
ATOM     15  C   UNL d   1     -34.268  20.266  25.167  0.00  0.00     0.117 A 
ATOM     16  F   UNL d   1     -35.494  19.815  25.513  0.00  0.00    -0.206 F 
BRANCH   8  17
ATOM     17  C   UNL d   1     -33.510  21.447  21.129  0.00  0.00     0.177 C 
ATOM     18  O   UNL d   1     -34.096  22.457  20.793  0.00  0.00    -0.646 OA
BRANCH  17  19
ATOM     19  O   UNL d   1     -33.804  20.271  20.542  0.00  0.00    -0.773 OA
ATOM     20  H   UNL d   1     -33.159  19.558  20.639  0.00  0.00     0.167 HD
ENDBRANCH  17  19
ENDBRANCH   8  17
ENDBRANCH   1   5
BRANCH   3  21
ATOM     21  C   UNL d   1     -26.511  22.270  22.798  0.00  0.00     0.113 A 
ATOM     22  C   UNL d   1     -25.995  23.173  23.722  0.00  0.00     0.147 A 
ATOM     23  C   UNL d   1     -24.719  23.676  23.558  0.00  0.00     0.057 A 
ATOM     24  F   UNL d   1     -26.740  23.555  24.782  0.00  0.00    -0.204 F 
ATOM     25  C   UNL d   1     -23.953  23.287  22.461  0.00  0.00    -0.020 A 
ATOM     26  C   UNL d   1     -24.471  22.382  21.536  0.00  0.00     0.057 A 
ATOM     27  C   UNL d   1     -25.745  21.875  21.705  0.00  0.00     0.147 A 
ATOM     28  F   UNL d   1     -26.246  20.997  20.810  0.00  0.00    -0.204 F 
BRANCH  25  29
ATOM     29  C   UNL d   1     -22.585  23.832  22.280  0.00  0.00    -0.023 A 
ATOM     30  C   UNL d   1     -21.686  23.830  23.344  0.00  0.00     0.054 A 
ATOM     31  C   UNL d   1     -20.413  24.339  23.171  0.00  0.00     0.117 A 
ATOM     32  C   UNL d   1     -20.030  24.846  21.939  0.00  0.00     0.042 A 
ATOM     33  F   UNL d   1     -19.539  24.339  24.201  0.00  0.00    -0.206 F 
ATOM     34  C   UNL d   1     -20.922  24.854  20.883  0.00  0.00     0.004 A 
ATOM     35  C   UNL d   1     -22.195  24.348  21.046  0.00  0.00     0.012 A 
ENDBRANCH  25  29
ENDBRANCH   3  21
TORSDOF 5
ENDMDL
