MODEL 1
REMARK VINA RESULT:      -9.8      0.000      0.000
REMARK  7 active torsions:
REMARK  status: ('A' for Active; 'I' for Inactive)
REMARK    1  A    between atoms: C_2  and  C_4 
REMARK    2  A    between atoms: N_6  and  C_7 
REMARK    3  A    between atoms: C_9  and  O_10 
REMARK    4  A    between atoms: C_22  and  N_23 
REMARK    5  A    between atoms: C_25  and  C_26 
REMARK    6  A    between atoms: C_26  and  O_27 
REMARK    7  A    between atoms: N_28  and  C_29 
ROOT
ATOM      1  C   UNL d   1     -25.782  24.175  23.902  0.00  0.00    -0.004 A 
ATOM      2  C   UNL d   1     -24.472  24.370  23.604  0.00  0.00     0.113 A 
ATOM      3  N   UNL d   1     -23.866  23.743  22.554  0.00  0.00    -0.285 N 
ATOM      4  C   UNL d   1     -24.522  22.892  21.744  0.00  0.00     0.263 A 
ATOM      5  O   UNL d   1     -23.940  22.355  20.819  0.00  0.00    -0.267 OA
ATOM      6  C   UNL d   1     -25.941  22.615  21.983  0.00  0.00     0.047 A 
ATOM      7  C   UNL d   1     -26.666  21.740  21.171  0.00  0.00     0.062 A 
ATOM      8  C   UNL d   1     -27.988  21.511  21.431  0.00  0.00     0.146 A 
ATOM      9  F   UNL d   1     -28.688  20.665  20.646  0.00  0.00    -0.204 F 
ATOM     10  C   UNL d   1     -28.625  22.146  22.502  0.00  0.00     0.103 A 
ATOM     11  C   UNL d   1     -27.926  23.022  23.317  0.00  0.00     0.048 A 
ATOM     12  C   UNL d   1     -26.578  23.259  23.067  0.00  0.00    -0.006 A 
ENDROOT
BRANCH  10  13
ATOM     13  N   UNL d   1     -29.978  21.898  22.751  0.00  0.00    -0.178 N 
ATOM     14  C   UNL d   1     -30.997  22.088  21.887  0.00  0.00     0.351 A 
ATOM     15  N   UNL d   1     -32.133  21.727  22.518  0.00  0.00    -0.283 N 
ATOM     16  O   UNL d   1     -30.908  22.506  20.746  0.00  0.00    -0.244 OA
ATOM     17  C   UNL d   1     -31.810  21.316  23.787  0.00  0.00     0.154 A 
ATOM     18  N   UNL d   1     -30.528  21.406  23.942  0.00  0.00    -0.147 NA
BRANCH  15  19
ATOM     19  C   UNL d   1     -33.482  21.773  21.948  0.00  0.00     0.131 C 
ATOM     20  C   UNL d   1     -33.907  20.365  21.529  0.00  0.00     0.027 C 
ENDBRANCH  15  19
BRANCH  17  21
ATOM     21  C   UNL d   1     -32.787  20.836  24.829  0.00  0.00     0.244 C 
BRANCH  21  22
ATOM     22  O   UNL d   1     -32.180  20.904  26.121  0.00  0.00    -0.393 OA
ATOM     23  H   UNL d   1     -31.465  21.552  26.185  0.00  0.00     0.209 HD
ENDBRANCH  21  22
ENDBRANCH  17  21
ENDBRANCH  10  13
BRANCH   1  24
ATOM     24  C   UNL d   1     -26.402  24.873  25.045  0.00  0.00    -0.059 C 
ATOM     25  C   UNL d   1     -26.291  26.191  25.157  0.00  0.00     0.019 C 
ATOM     26  C   UNL d   1     -27.159  24.088  26.086  0.00  0.00     0.048 C 
ENDBRANCH   1  24
BRANCH   3  27
ATOM     27  C   UNL d   1     -22.512  23.996  22.311  0.00  0.00     0.086 A 
ATOM     28  C   UNL d   1     -22.067  24.348  21.035  0.00  0.00     0.161 A 
ATOM     29  C   UNL d   1     -20.724  24.594  20.834  0.00  0.00     0.164 A 
ATOM     30  F   UNL d   1     -22.942  24.451  20.010  0.00  0.00    -0.202 F 
ATOM     31  N   UNL d   1     -19.861  24.492  21.828  0.00  0.00    -0.234 NA
ATOM     32  C   UNL d   1     -20.241  24.157  23.051  0.00  0.00     0.165 A 
ATOM     33  C   UNL d   1     -21.574  23.899  23.334  0.00  0.00     0.091 A 
BRANCH  32  34
ATOM     34  O   UNL d   1     -19.315  24.064  24.039  0.00  0.00    -0.339 OA
ATOM     35  C   UNL d   1     -18.880  25.286  24.638  0.00  0.00     0.211 C 
ENDBRANCH  32  34
ENDBRANCH   3  27
TORSDOF 7
ENDMDL
