MODEL 1
REMARK VINA RESULT:      -9.3      0.000      0.000
REMARK  9 active torsions:
REMARK  status: ('A' for Active; 'I' for Inactive)
REMARK    1  A    between atoms: C_2  and  C_3 
REMARK    2  A    between atoms: C_3  and  C_4 
REMARK    3  A    between atoms: C_4  and  O_6 
REMARK    4  A    between atoms: O_6  and  C_7 
REMARK    5  A    between atoms: C_9  and  N_10 
REMARK    6  A    between atoms: C_12  and  C_13 
REMARK    7  A    between atoms: C_13  and  O_14 
REMARK    8  A    between atoms: C_22  and  C_23 
REMARK       I    between atoms: C_23  and  N_25 
REMARK    9  A    between atoms: N_25  and  C_26 
ROOT
ATOM      1  C   UNL d   1     -26.280  23.179  23.332  0.00  0.00     0.087 A 
ATOM      2  C   UNL d   1     -27.653  23.041  23.434  0.00  0.00     0.073 A 
ATOM      3  C   UNL d   1     -28.336  22.215  22.550  0.00  0.00     0.104 A 
ATOM      4  C   UNL d   1     -27.645  21.531  21.551  0.00  0.00     0.146 A 
ATOM      5  F   UNL d   1     -28.317  20.733  20.692  0.00  0.00    -0.204 F 
ATOM      6  C   UNL d   1     -26.280  21.665  21.438  0.00  0.00     0.064 A 
ATOM      7  C   UNL d   1     -25.583  22.491  22.327  0.00  0.00     0.068 A 
ENDROOT
BRANCH   7   8
ATOM      8  C   UNL d   1     -24.122  22.638  22.209  0.00  0.00     0.259 C 
ATOM      9  O   UNL d   1     -23.408  21.654  22.228  0.00  0.00    -0.267 OA
ATOM     10  N   UNL d   1     -23.577  23.864  22.080  0.00  0.00    -0.319 N 
ATOM     11  H   UNL d   1     -24.149  24.642  21.982  0.00  0.00     0.169 HD
BRANCH  10  12
ATOM     12  C   UNL d   1     -22.185  24.015  22.086  0.00  0.00     0.096 A 
ATOM     13  C   UNL d   1     -21.513  24.327  20.910  0.00  0.00     0.064 A 
ATOM     14  C   UNL d   1     -20.140  24.480  20.920  0.00  0.00     0.026 A 
ATOM     15 CL   UNL d   1     -22.400  24.531  19.432  0.00  0.00    -0.082 Cl
ATOM     16  C   UNL d   1     -19.432  24.312  22.096  0.00  0.00     0.005 A 
ATOM     17  C   UNL d   1     -20.095  23.996  23.267  0.00  0.00     0.045 A 
ATOM     18  C   UNL d   1     -21.469  23.846  23.266  0.00  0.00     0.144 A 
ATOM     19  F   UNL d   1     -22.118  23.536  24.411  0.00  0.00    -0.204 F 
ENDBRANCH  10  12
ENDBRANCH   7   8
BRANCH   1  20
ATOM     20  O   UNL d   1     -25.611  23.981  24.197  0.00  0.00    -0.345 OA
BRANCH  20  21
ATOM     21  C   UNL d   1     -25.925  25.375  24.164  0.00  0.00     0.124 C 
ATOM     22  C   UNL d   1     -26.302  25.846  25.570  0.00  0.00     0.040 C 
BRANCH  21  23
ATOM     23  C   UNL d   1     -24.708  26.161  23.673  0.00  0.00     0.032 C 
BRANCH  23  24
ATOM     24  C   UNL d   1     -23.709  26.324  24.821  0.00  0.00    -0.002 C 
ATOM     25  C   UNL d   1     -22.467  27.060  24.315  0.00  0.00     0.005 C 
ENDBRANCH  23  24
ENDBRANCH  21  23
ENDBRANCH  20  21
ENDBRANCH   1  20
BRANCH   3  26
ATOM     26  N   UNL d   1     -29.722  22.075  22.660  0.00  0.00    -0.178 N 
ATOM     27  C   UNL d   1     -30.403  21.696  23.761  0.00  0.00     0.351 A 
ATOM     28  N   UNL d   1     -31.713  21.687  23.443  0.00  0.00    -0.287 N 
ATOM     29  O   UNL d   1     -29.922  21.414  24.844  0.00  0.00    -0.244 OA
ATOM     30  C   UNL d   1     -31.840  22.065  22.128  0.00  0.00     0.154 A 
ATOM     31  C   UNL d   1     -32.812  21.334  24.344  0.00  0.00     0.163 C 
ATOM     32  N   UNL d   1     -30.662  22.301  21.646  0.00  0.00    -0.147 NA
BRANCH  30  33
ATOM     33  C   UNL d   1     -33.139  22.187  21.373  0.00  0.00     0.244 C 
BRANCH  33  34
ATOM     34  O   UNL d   1     -33.504  20.910  20.846  0.00  0.00    -0.393 OA
ATOM     35  H   UNL d   1     -33.921  20.322  21.492  0.00  0.00     0.209 HD
ENDBRANCH  33  34
ENDBRANCH  30  33
ENDBRANCH   3  26
TORSDOF 9
ENDMDL
