MODEL 1
REMARK VINA RESULT:      -7.8      0.000      0.000
REMARK  7 active torsions:
REMARK  status: ('A' for Active; 'I' for Inactive)
REMARK    1  A    between atoms: C_2  and  C_4 
REMARK    2  A    between atoms: N_6  and  C_7 
REMARK    3  A    between atoms: C_9  and  O_10 
REMARK    4  A    between atoms: C_22  and  N_23 
REMARK    5  A    between atoms: C_25  and  C_26 
REMARK    6  A    between atoms: C_26  and  O_27 
REMARK    7  A    between atoms: N_28  and  C_29 
ROOT
ATOM      1  C   UNL d   1     -20.764  26.060  24.247  0.00  0.00    -0.004 A 
ATOM      2  C   UNL d   1     -21.668  25.411  23.469  0.00  0.00     0.113 A 
ATOM      3  N   UNL d   1     -21.299  24.709  22.360  0.00  0.00    -0.285 N 
ATOM      4  C   UNL d   1     -20.015  24.607  21.964  0.00  0.00     0.263 A 
ATOM      5  O   UNL d   1     -19.730  23.964  20.969  0.00  0.00    -0.267 OA
ATOM      6  C   UNL d   1     -18.964  25.277  22.736  0.00  0.00     0.047 A 
ATOM      7  C   UNL d   1     -17.620  25.205  22.364  0.00  0.00     0.062 A 
ATOM      8  C   UNL d   1     -16.674  25.842  23.116  0.00  0.00     0.146 A 
ATOM      9  F   UNL d   1     -15.374  25.772  22.756  0.00  0.00    -0.204 F 
ATOM     10  C   UNL d   1     -17.037  26.566  24.257  0.00  0.00     0.103 A 
ATOM     11  C   UNL d   1     -18.364  26.651  24.643  0.00  0.00     0.048 A 
ATOM     12  C   UNL d   1     -19.337  26.007  23.887  0.00  0.00    -0.006 A 
ENDROOT
BRANCH  10  13
ATOM     13  N   UNL d   1     -16.052  27.209  25.011  0.00  0.00    -0.178 N 
ATOM     14  C   UNL d   1     -15.459  26.732  26.126  0.00  0.00     0.351 A 
ATOM     15  N   UNL d   1     -14.569  27.657  26.537  0.00  0.00    -0.283 N 
ATOM     16  O   UNL d   1     -15.686  25.662  26.662  0.00  0.00    -0.244 OA
ATOM     17  C   UNL d   1     -14.620  28.722  25.670  0.00  0.00     0.154 A 
ATOM     18  N   UNL d   1     -15.499  28.471  24.752  0.00  0.00    -0.147 NA
BRANCH  15  19
ATOM     19  C   UNL d   1     -13.700  27.549  27.711  0.00  0.00     0.131 C 
ATOM     20  C   UNL d   1     -14.435  28.088  28.941  0.00  0.00     0.027 C 
ENDBRANCH  15  19
BRANCH  17  21
ATOM     21  C   UNL d   1     -13.788  29.974  25.768  0.00  0.00     0.244 C 
BRANCH  21  22
ATOM     22  O   UNL d   1     -14.647  31.106  25.916  0.00  0.00    -0.393 OA
ATOM     23  H   UNL d   1     -14.597  31.736  25.183  0.00  0.00     0.209 HD
ENDBRANCH  21  22
ENDBRANCH  17  21
ENDBRANCH  10  13
BRANCH   1  24
ATOM     24  C   UNL d   1     -21.206  26.810  25.440  0.00  0.00    -0.059 C 
ATOM     25  C   UNL d   1     -21.945  27.903  25.300  0.00  0.00     0.019 C 
ATOM     26  C   UNL d   1     -20.818  26.333  26.815  0.00  0.00     0.048 C 
ENDBRANCH   1  24
BRANCH   3  27
ATOM     27  C   UNL d   1     -22.290  24.066  21.607  0.00  0.00     0.083 A 
ATOM     28  C   UNL d   1     -22.517  24.443  20.288  0.00  0.00     0.143 A 
ATOM     29  C   UNL d   1     -23.500  23.812  19.548  0.00  0.00     0.047 A 
ATOM     30  F   UNL d   1     -21.781  25.430  19.731  0.00  0.00    -0.204 F 
ATOM     31  C   UNL d   1     -24.250  22.798  20.114  0.00  0.00     0.040 A 
ATOM     32  C   UNL d   1     -24.027  22.419  21.430  0.00  0.00     0.070 A 
ATOM     33  C   UNL d   1     -23.047  23.053  22.177  0.00  0.00     0.070 A 
BRANCH  32  34
ATOM     34  O   UNL d   1     -24.770  21.426  21.986  0.00  0.00    -0.356 OA
ATOM     35  C   UNL d   1     -26.150  21.365  21.621  0.00  0.00     0.210 C 
ENDBRANCH  32  34
ENDBRANCH   3  27
TORSDOF 7
ENDMDL
