MODEL 1
REMARK VINA RESULT:      -9.6      0.000      0.000
REMARK  9 active torsions:
REMARK  status: ('A' for Active; 'I' for Inactive)
REMARK    1  A    between atoms: C_2  and  N_3 
REMARK    2  A    between atoms: C_4  and  C_5 
REMARK    3  A    between atoms: C_5  and  O_6 
REMARK    4  A    between atoms: N_8  and  C_9 
REMARK    5  A    between atoms: C_11  and  O_12 
REMARK    6  A    between atoms: O_12  and  C_13 
REMARK    7  A    between atoms: C_13  and  C_15 
REMARK    8  A    between atoms: C_19  and  C_20 
REMARK       I    between atoms: C_20  and  N_22 
REMARK    9  A    between atoms: N_22  and  C_23 
ROOT
ATOM      1  C   UNL d   1     -26.561  23.581  23.748  0.00  0.00     0.197 A 
ATOM      2  N   UNL d   1     -25.657  23.118  22.896  0.00  0.00    -0.201 NA
ATOM      3  C   UNL d   1     -24.455  23.658  22.797  0.00  0.00     0.183 A 
ATOM      4  C   UNL d   1     -24.091  24.743  23.608  0.00  0.00     0.088 A 
ATOM      5  C   UNL d   1     -25.026  25.250  24.523  0.00  0.00     0.068 A 
ATOM      6  C   UNL d   1     -26.272  24.656  24.587  0.00  0.00     0.165 A 
ATOM      7  F   UNL d   1     -27.201  25.113  25.454  0.00  0.00    -0.202 F 
ENDROOT
BRANCH   4   8
ATOM      8  C   UNL d   1     -22.749  25.339  23.502  0.00  0.00     0.260 C 
ATOM      9  O   UNL d   1     -22.564  26.294  22.771  0.00  0.00    -0.267 OA
ATOM     10  N   UNL d   1     -21.726  24.828  24.215  0.00  0.00    -0.319 N 
ATOM     11  H   UNL d   1     -21.887  24.113  24.851  0.00  0.00     0.169 HD
BRANCH  10  12
ATOM     12  C   UNL d   1     -20.430  25.328  24.036  0.00  0.00     0.098 A 
ATOM     13  C   UNL d   1     -19.594  24.790  23.067  0.00  0.00     0.154 A 
ATOM     14  N   UNL d   1     -18.374  25.262  22.894  0.00  0.00    -0.246 NA
ATOM     15 CL   UNL d   1     -20.160  23.487  22.069  0.00  0.00    -0.060 Cl
ATOM     16  C   UNL d   1     -17.899  26.247  23.631  0.00  0.00     0.120 A 
ATOM     17  C   UNL d   1     -18.668  26.830  24.619  0.00  0.00     0.045 A 
ATOM     18  C   UNL d   1     -19.958  26.369  24.834  0.00  0.00     0.065 A 
ATOM     19 CL   UNL d   1     -20.961  27.072  26.064  0.00  0.00    -0.082 Cl
ENDBRANCH  10  12
ENDBRANCH   4   8
BRANCH   3  20
ATOM     20  O   UNL d   1     -23.565  23.155  21.908  0.00  0.00    -0.319 OA
BRANCH  20  21
ATOM     21  C   UNL d   1     -23.866  23.325  20.521  0.00  0.00     0.234 C 
ATOM     22  C   UNL d   1     -22.590  23.701  19.765  0.00  0.00     0.049 C 
BRANCH  21  23
ATOM     23  C   UNL d   1     -24.427  22.019  19.956  0.00  0.00     0.413 C 
ATOM     24  F   UNL d   1     -25.800  22.161  19.728  0.00  0.00    -0.168 F 
ATOM     25  F   UNL d   1     -23.783  21.716  18.753  0.00  0.00    -0.168 F 
ATOM     26  F   UNL d   1     -24.212  20.984  20.874  0.00  0.00    -0.168 F 
ENDBRANCH  21  23
ENDBRANCH  20  21
ENDBRANCH   3  20
BRANCH   1  27
ATOM     27  N   UNL d   1     -27.815  22.981  23.810  0.00  0.00    -0.159 N 
ATOM     28  N   UNL d   1     -28.837  23.091  22.857  0.00  0.00    -0.145 NA
ATOM     29  C   UNL d   1     -29.845  22.389  23.264  0.00  0.00     0.154 A 
ATOM     30  N   UNL d   1     -29.527  21.816  24.471  0.00  0.00    -0.283 N 
ATOM     31  C   UNL d   1     -28.272  22.184  24.798  0.00  0.00     0.352 A 
ATOM     32  O   UNL d   1     -27.664  21.858  25.801  0.00  0.00    -0.244 OA
BRANCH  29  33
ATOM     33  C   UNL d   1     -31.153  22.228  22.533  0.00  0.00     0.244 C 
BRANCH  33  34
ATOM     34  O   UNL d   1     -30.931  22.342  21.127  0.00  0.00    -0.393 OA
ATOM     35  H   UNL d   1     -31.734  22.508  20.613  0.00  0.00     0.209 HD
ENDBRANCH  33  34
ENDBRANCH  29  33
BRANCH  30  36
ATOM     36  C   UNL d   1     -30.401  20.948  25.264  0.00  0.00     0.131 C 
ATOM     37  C   UNL d   1     -31.615  21.747  25.743  0.00  0.00     0.027 C 
ENDBRANCH  30  36
ENDBRANCH   1  27
TORSDOF 9
ENDMDL
