MODEL 1
REMARK VINA RESULT:     -13.2      0.000      0.000
REMARK  2 active torsions:
REMARK  status: ('A' for Active; 'I' for Inactive)
REMARK    1  A    between atoms: N_15  and  C_16 
REMARK    2  A    between atoms: C_19  and  C_20 
ROOT
ATOM      1  O   UNL d   1     -32.285  20.954  25.943  0.00  0.00    -0.285 OA
ATOM      2  C   UNL d   1     -31.591  21.348  25.027  0.00  0.00     0.216 A 
ATOM      3  C   UNL d   1     -32.176  21.541  23.681  0.00  0.00     0.031 A 
ATOM      4  C   UNL d   1     -33.522  21.273  23.454  0.00  0.00     0.016 A 
ATOM      5  C   UNL d   1     -34.057  21.457  22.190  0.00  0.00     0.001 A 
ATOM      6  C   UNL d   1     -33.263  21.906  21.152  0.00  0.00     0.001 A 
ATOM      7  C   UNL d   1     -31.921  22.177  21.362  0.00  0.00     0.016 A 
ATOM      8  C   UNL d   1     -31.368  21.997  22.625  0.00  0.00     0.031 A 
ATOM      9  C   UNL d   1     -29.936  22.282  22.864  0.00  0.00     0.214 A 
ATOM     10  O   UNL d   1     -29.232  22.677  21.954  0.00  0.00    -0.285 OA
ATOM     11  C   UNL d   1     -29.365  22.088  24.204  0.00  0.00     0.146 A 
ATOM     12  C   UNL d   1     -30.162  21.637  25.251  0.00  0.00     0.164 A 
ATOM     13  N   UNL d   1     -29.359  21.565  26.320  0.00  0.00    -0.125 NA
ATOM     14  N   UNL d   1     -28.173  21.929  25.981  0.00  0.00    -0.059 NA
ATOM     15  N   UNL d   1     -28.122  22.255  24.736  0.00  0.00    -0.209 N 
ENDROOT
BRANCH  15  16
ATOM     16  C   UNL d   1     -26.989  22.698  24.049  0.00  0.00     0.060 A 
ATOM     17  C   UNL d   1     -26.412  21.895  23.071  0.00  0.00     0.032 A 
ATOM     18  C   UNL d   1     -25.296  22.333  22.389  0.00  0.00     0.014 A 
ATOM     19  C   UNL d   1     -24.741  23.576  22.687  0.00  0.00    -0.026 A 
ATOM     20  C   UNL d   1     -25.322  24.380  23.667  0.00  0.00     0.014 A 
ATOM     21  C   UNL d   1     -26.440  23.941  24.343  0.00  0.00     0.032 A 
BRANCH  19  22
ATOM     22  C   UNL d   1     -23.539  24.047  21.957  0.00  0.00    -0.023 A 
ATOM     23  C   UNL d   1     -22.561  24.782  22.623  0.00  0.00     0.054 A 
ATOM     24  C   UNL d   1     -21.444  25.223  21.936  0.00  0.00     0.117 A 
ATOM     25  C   UNL d   1     -21.296  24.928  20.590  0.00  0.00     0.042 A 
ATOM     26  F   UNL d   1     -20.497  25.941  22.578  0.00  0.00    -0.206 F 
ATOM     27  C   UNL d   1     -22.262  24.193  19.928  0.00  0.00     0.004 A 
ATOM     28  C   UNL d   1     -23.380  23.749  20.605  0.00  0.00     0.012 A 
ENDBRANCH  19  22
ENDBRANCH  15  16
TORSDOF 2
ENDMDL
