MODEL 1
REMARK VINA RESULT:      -9.7      0.000      0.000
REMARK  8 active torsions:
REMARK  status: ('A' for Active; 'I' for Inactive)
REMARK    1  A    between atoms: C_2  and  C_3 
REMARK    2  A    between atoms: C_3  and  C_4 
REMARK    3  A    between atoms: C_4  and  O_6 
REMARK    4  A    between atoms: O_6  and  C_7 
REMARK    5  A    between atoms: C_9  and  N_10 
REMARK    6  A    between atoms: C_23  and  C_24 
REMARK       I    between atoms: C_24  and  N_26 
REMARK    7  A    between atoms: N_26  and  C_27 
REMARK    8  A    between atoms: C_33  and  O_34 
ROOT
ATOM      1  C   UNL d   1     -26.246  23.167  23.298  0.00  0.00     0.087 A 
ATOM      2  C   UNL d   1     -27.619  23.020  23.377  0.00  0.00     0.073 A 
ATOM      3  C   UNL d   1     -28.283  22.197  22.477  0.00  0.00     0.104 A 
ATOM      4  C   UNL d   1     -27.570  21.515  21.492  0.00  0.00     0.146 A 
ATOM      5  F   UNL d   1     -28.223  20.717  20.620  0.00  0.00    -0.204 F 
ATOM      6  C   UNL d   1     -26.204  21.659  21.401  0.00  0.00     0.064 A 
ATOM      7  C   UNL d   1     -25.526  22.482  22.307  0.00  0.00     0.068 A 
ENDROOT
BRANCH   7   8
ATOM      8  C   UNL d   1     -24.065  22.634  22.217  0.00  0.00     0.259 C 
ATOM      9  O   UNL d   1     -23.351  21.648  22.187  0.00  0.00    -0.267 OA
ATOM     10  N   UNL d   1     -23.516  23.864  22.168  0.00  0.00    -0.319 N 
ATOM     11  H   UNL d   1     -24.076  24.649  22.275  0.00  0.00     0.169 HD
BRANCH  10  12
ATOM     12  C   UNL d   1     -22.138  24.009  21.963  0.00  0.00     0.094 A 
ATOM     13  C   UNL d   1     -21.639  24.309  20.695  0.00  0.00     0.191 A 
ATOM     14  N   UNL d   1     -20.340  24.447  20.500  0.00  0.00    -0.235 NA
ATOM     15  C   UNL d   1     -19.471  24.307  21.485  0.00  0.00     0.120 A 
ATOM     16  C   UNL d   1     -19.892  24.015  22.767  0.00  0.00     0.028 A 
ATOM     17  C   UNL d   1     -21.247  23.856  23.018  0.00  0.00    -0.029 A 
ATOM     18  C   UNL d   1     -21.741  23.531  24.405  0.00  0.00     0.050 C 
BRANCH  13  19
ATOM     19  O   UNL d   1     -22.496  24.463  19.654  0.00  0.00    -0.338 OA
ATOM     20  C   UNL d   1     -23.067  23.275  19.103  0.00  0.00     0.211 C 
ENDBRANCH  13  19
ENDBRANCH  10  12
ENDBRANCH   7   8
BRANCH   1  21
ATOM     21  O   UNL d   1     -25.595  23.971  24.176  0.00  0.00    -0.345 OA
BRANCH  21  22
ATOM     22  C   UNL d   1     -25.919  25.363  24.144  0.00  0.00     0.124 C 
ATOM     23  C   UNL d   1     -26.288  25.834  25.553  0.00  0.00     0.040 C 
BRANCH  22  24
ATOM     24  C   UNL d   1     -24.710  26.156  23.641  0.00  0.00     0.032 C 
BRANCH  24  25
ATOM     25  C   UNL d   1     -23.722  26.363  24.791  0.00  0.00    -0.002 C 
ATOM     26  C   UNL d   1     -22.482  27.093  24.272  0.00  0.00     0.005 C 
ENDBRANCH  24  25
ENDBRANCH  22  24
ENDBRANCH  21  22
ENDBRANCH   1  21
BRANCH   3  27
ATOM     27  N   UNL d   1     -29.670  22.052  22.560  0.00  0.00    -0.178 N 
ATOM     28  C   UNL d   1     -30.373  21.702  23.659  0.00  0.00     0.351 A 
ATOM     29  N   UNL d   1     -31.673  21.702  23.320  0.00  0.00    -0.284 N 
ATOM     30  O   UNL d   1     -29.914  21.434  24.755  0.00  0.00    -0.244 OA
ATOM     31  C   UNL d   1     -31.772  22.023  21.981  0.00  0.00     0.131 A 
ATOM     32  C   UNL d   1     -32.824  21.442  24.192  0.00  0.00     0.135 C 
ATOM     33  N   UNL d   1     -30.590  22.248  21.519  0.00  0.00    -0.149 NA
ATOM     34  C   UNL d   1     -33.079  22.073  21.225  0.00  0.00     0.081 C 
ATOM     35  C   UNL d   1     -34.217  22.182  22.250  0.00  0.00     0.009 C 
ATOM     36  C   UNL d   1     -34.034  21.096  23.316  0.00  0.00     0.021 C 
ENDBRANCH   3  27
TORSDOF 8
ENDMDL
