MODEL 1
REMARK VINA RESULT:      -9.5      0.000      0.000
REMARK  8 active torsions:
REMARK  status: ('A' for Active; 'I' for Inactive)
REMARK    1  A    between atoms: C_2  and  N_3 
REMARK    2  A    between atoms: C_4  and  C_5 
REMARK    3  A    between atoms: N_9  and  C_10 
REMARK    4  A    between atoms: C_12  and  O_13 
REMARK    5  A    between atoms: O_13  and  C_14 
REMARK    6  A    between atoms: C_14  and  C_16 
REMARK    7  A    between atoms: C_20  and  C_21 
REMARK       I    between atoms: C_21  and  N_23 
REMARK    8  A    between atoms: N_23  and  C_24 
ROOT
ATOM      1  C   UNL d   1     -26.824  23.355  23.653  0.00  0.00     0.104 A 
ATOM      2  C   UNL d   1     -25.959  22.841  22.695  0.00  0.00     0.073 A 
ATOM      3  C   UNL d   1     -24.688  23.370  22.555  0.00  0.00     0.087 A 
ATOM      4  C   UNL d   1     -24.274  24.421  23.388  0.00  0.00     0.068 A 
ATOM      5  C   UNL d   1     -25.150  24.930  24.353  0.00  0.00     0.064 A 
ATOM      6  C   UNL d   1     -26.413  24.397  24.484  0.00  0.00     0.146 A 
ATOM      7  F   UNL d   1     -27.258  24.887  25.416  0.00  0.00    -0.204 F 
ENDROOT
BRANCH   1   8
ATOM      8  N   UNL d   1     -28.109  22.823  23.787  0.00  0.00    -0.178 N 
ATOM      9  N   UNL d   1     -29.217  23.115  22.980  0.00  0.00    -0.149 NA
ATOM     10  C   UNL d   1     -30.224  22.427  23.415  0.00  0.00     0.135 A 
ATOM     11  N   UNL d   1     -29.819  21.686  24.498  0.00  0.00    -0.284 N 
ATOM     12  C   UNL d   1     -28.514  21.937  24.720  0.00  0.00     0.351 A 
ATOM     13  O   UNL d   1     -27.826  21.452  25.602  0.00  0.00    -0.244 OA
BRANCH  10  14
ATOM     14  C   UNL d   1     -31.612  22.441  22.831  0.00  0.00     0.057 A 
ATOM     15  C   UNL d   1     -31.760  22.084  21.349  0.00  0.00     0.013 A 
ATOM     16  C   UNL d   1     -32.222  21.097  22.425  0.00  0.00     0.013 A 
ENDBRANCH  10  14
BRANCH  11  17
ATOM     17  C   UNL d   1     -30.663  20.779  25.280  0.00  0.00     0.131 C 
ATOM     18  C   UNL d   1     -31.711  21.588  26.047  0.00  0.00     0.027 C 
ENDBRANCH  11  17
ENDBRANCH   1   8
BRANCH   3  19
ATOM     19  O   UNL d   1     -23.844  22.872  21.617  0.00  0.00    -0.336 OA
BRANCH  19  20
ATOM     20  C   UNL d   1     -23.949  23.414  20.298  0.00  0.00     0.232 C 
ATOM     21  C   UNL d   1     -22.566  23.857  19.817  0.00  0.00     0.049 C 
BRANCH  20  22
ATOM     22  C   UNL d   1     -24.499  22.345  19.351  0.00  0.00     0.413 C 
ATOM     23  F   UNL d   1     -24.569  22.864  18.054  0.00  0.00    -0.168 F 
ATOM     24  F   UNL d   1     -23.653  21.231  19.363  0.00  0.00    -0.168 F 
ATOM     25  F   UNL d   1     -25.778  21.964  19.770  0.00  0.00    -0.168 F 
ENDBRANCH  20  22
ENDBRANCH  19  20
ENDBRANCH   3  19
BRANCH   4  26
ATOM     26  C   UNL d   1     -22.922  24.989  23.244  0.00  0.00     0.259 C 
ATOM     27  O   UNL d   1     -22.759  26.018  22.617  0.00  0.00    -0.267 OA
ATOM     28  N   UNL d   1     -21.867  24.368  23.808  0.00  0.00    -0.320 N 
ATOM     29  H   UNL d   1     -21.984  23.505  24.236  0.00  0.00     0.169 HD
BRANCH  28  30
ATOM     30  C   UNL d   1     -20.603  24.968  23.776  0.00  0.00     0.073 A 
ATOM     31  C   UNL d   1     -19.693  24.623  22.783  0.00  0.00     0.143 A 
ATOM     32  C   UNL d   1     -18.447  25.223  22.751  0.00  0.00     0.044 A 
ATOM     33  F   UNL d   1     -20.028  23.708  21.847  0.00  0.00    -0.204 F 
ATOM     34  C   UNL d   1     -18.103  26.154  23.713  0.00  0.00     0.003 A 
ATOM     35  C   UNL d   1     -19.004  26.494  24.705  0.00  0.00     0.002 A 
ATOM     36  C   UNL d   1     -20.253  25.904  24.740  0.00  0.00     0.033 A 
ENDBRANCH  28  30
ENDBRANCH   4  26
TORSDOF 8
ENDMDL
