MODEL 1
REMARK VINA RESULT:      -9.4      0.000      0.000
REMARK  6 active torsions:
REMARK  status: ('A' for Active; 'I' for Inactive)
REMARK    1  A    between atoms: C_2  and  C_4 
REMARK    2  A    between atoms: N_6  and  C_7 
REMARK    3  A    between atoms: C_21  and  N_22 
REMARK    4  A    between atoms: C_24  and  C_25 
REMARK    5  A    between atoms: C_25  and  O_26 
REMARK    6  A    between atoms: N_27  and  C_28 
ROOT
ATOM      1  C   UNL d   1     -25.878  23.991  23.762  0.00  0.00    -0.004 A 
ATOM      2  C   UNL d   1     -24.585  24.178  23.396  0.00  0.00     0.113 A 
ATOM      3  N   UNL d   1     -24.054  23.593  22.283  0.00  0.00    -0.288 N 
ATOM      4  C   UNL d   1     -24.775  22.791  21.475  0.00  0.00     0.263 A 
ATOM      5  O   UNL d   1     -24.259  22.290  20.492  0.00  0.00    -0.267 OA
ATOM      6  C   UNL d   1     -26.182  22.527  21.786  0.00  0.00     0.047 A 
ATOM      7  C   UNL d   1     -26.972  21.704  20.980  0.00  0.00     0.062 A 
ATOM      8  C   UNL d   1     -28.281  21.487  21.309  0.00  0.00     0.146 A 
ATOM      9  F   UNL d   1     -29.042  20.690  20.529  0.00  0.00    -0.204 F 
ATOM     10  C   UNL d   1     -28.839  22.079  22.446  0.00  0.00     0.103 A 
ATOM     11  C   UNL d   1     -28.076  22.903  23.256  0.00  0.00     0.048 A 
ATOM     12  C   UNL d   1     -26.740  23.129  22.937  0.00  0.00    -0.006 A 
ENDROOT
BRANCH  10  13
ATOM     13  N   UNL d   1     -30.179  21.844  22.764  0.00  0.00    -0.178 N 
ATOM     14  C   UNL d   1     -31.238  22.022  21.946  0.00  0.00     0.351 A 
ATOM     15  N   UNL d   1     -32.344  21.684  22.640  0.00  0.00    -0.283 N 
ATOM     16  O   UNL d   1     -31.202  22.417  20.795  0.00  0.00    -0.244 OA
ATOM     17  C   UNL d   1     -31.960  21.285  23.896  0.00  0.00     0.154 A 
ATOM     18  N   UNL d   1     -30.672  21.374  23.989  0.00  0.00    -0.147 NA
BRANCH  15  19
ATOM     19  C   UNL d   1     -33.719  21.730  22.136  0.00  0.00     0.131 C 
ATOM     20  C   UNL d   1     -34.092  20.368  21.547  0.00  0.00     0.027 C 
ENDBRANCH  15  19
BRANCH  17  21
ATOM     21  C   UNL d   1     -32.888  20.821  24.990  0.00  0.00     0.244 C 
BRANCH  21  22
ATOM     22  O   UNL d   1     -32.147  20.641  26.199  0.00  0.00    -0.393 OA
ATOM     23  H   UNL d   1     -32.477  21.161  26.943  0.00  0.00     0.209 HD
ENDBRANCH  21  22
ENDBRANCH  17  21
ENDBRANCH  10  13
BRANCH   1  24
ATOM     24  C   UNL d   1     -26.414  24.643  24.974  0.00  0.00    -0.059 C 
ATOM     25  C   UNL d   1     -26.280  25.955  25.135  0.00  0.00     0.019 C 
ATOM     26  C   UNL d   1     -27.110  23.822  26.026  0.00  0.00     0.048 C 
ENDBRANCH   1  24
BRANCH   3  27
ATOM     27  C   UNL d   1     -22.711  23.835  21.969  0.00  0.00     0.048 A 
ATOM     28  C   UNL d   1     -21.707  23.373  22.809  0.00  0.00    -0.035 A 
ATOM     29  C   UNL d   1     -20.383  23.608  22.495  0.00  0.00     0.009 A 
ATOM     30  C   UNL d   1     -22.061  22.611  24.060  0.00  0.00     0.050 C 
ATOM     31  C   UNL d   1     -20.058  24.313  21.351  0.00  0.00     0.007 A 
ATOM     32  C   UNL d   1     -21.056  24.779  20.515  0.00  0.00    -0.060 A 
ATOM     33  C   UNL d   1     -22.381  24.542  20.820  0.00  0.00     0.037 A 
ATOM     34  C   UNL d   1     -20.697  25.545  19.268  0.00  0.00     0.048 C 
ENDBRANCH   3  27
TORSDOF 6
ENDMDL
