MODEL 1
REMARK VINA RESULT:      -9.1      0.000      0.000
REMARK  5 active torsions:
REMARK  status: ('A' for Active; 'I' for Inactive)
REMARK    1  A    between atoms: C_8  and  C_9 
REMARK    2  A    between atoms: C_11  and  C_12 
REMARK    3  A    between atoms: C_17  and  C_18 
REMARK    4  A    between atoms: C_22  and  C_23 
REMARK    5  A    between atoms: C_23  and  O_26 
ROOT
ATOM      1  C   UNL d   1     -17.396  26.987  24.695  0.00  0.00     0.049 A 
ATOM      2  C   UNL d   1     -18.366  27.216  25.674  0.00  0.00     0.028 A 
ATOM      3  C   UNL d   1     -19.625  26.671  25.514  0.00  0.00    -0.026 A 
ATOM      4  C   UNL d   1     -19.910  25.902  24.382  0.00  0.00     0.050 A 
ATOM      5  C   UNL d   1     -21.192  25.355  24.221  0.00  0.00     0.047 A 
ATOM      6  C   UNL d   1     -21.466  24.588  23.101  0.00  0.00     0.036 A 
ATOM      7  C   UNL d   1     -20.447  24.386  22.138  0.00  0.00     0.145 A 
ATOM      8  F   UNL d   1     -20.697  23.646  21.036  0.00  0.00    -0.204 F 
ATOM      9  C   UNL d   1     -19.227  24.931  22.320  0.00  0.00     0.143 A 
ATOM     10  N   UNL d   1     -18.947  25.685  23.428  0.00  0.00    -0.285 N 
ATOM     11  C   UNL d   1     -17.714  26.211  23.571  0.00  0.00     0.263 A 
ATOM     12  O   UNL d   1     -16.866  26.010  22.715  0.00  0.00    -0.267 OA
ENDROOT
BRANCH   6  13
ATOM     13  C   UNL d   1     -22.807  23.995  22.908  0.00  0.00     0.087 A 
ATOM     14  N   UNL d   1     -23.149  23.089  21.966  0.00  0.00    -0.230 NA
ATOM     15  C   UNL d   1     -24.411  22.792  22.096  0.00  0.00     0.140 A 
ATOM     16  N   UNL d   1     -24.927  23.503  23.131  0.00  0.00    -0.345 N 
ATOM     17  C   UNL d   1     -23.918  24.264  23.647  0.00  0.00     0.124 A 
ATOM     18  C   UNL d   1     -26.313  23.465  23.603  0.00  0.00     0.157 C 
BRANCH  15  19
ATOM     19  C   UNL d   1     -25.174  21.819  21.234  0.00  0.00     0.111 C 
ATOM     20  C   UNL d   1     -26.656  21.856  21.610  0.00  0.00     0.054 C 
ATOM     21  C   UNL d   1     -25.010  22.204  19.762  0.00  0.00     0.054 C 
BRANCH  19  22
ATOM     22  O   UNL d   1     -24.663  20.500  21.441  0.00  0.00    -0.383 OA
ATOM     23  H   UNL d   1     -25.179  19.972  22.066  0.00  0.00     0.211 HD
ENDBRANCH  19  22
ENDBRANCH  15  19
ENDBRANCH   6  13
BRANCH   3  24
ATOM     24  C   UNL d   1     -20.687  26.904  26.557  0.00  0.00     0.013 C 
ATOM     25  C   UNL d   1     -20.121  26.589  27.943  0.00  0.00     0.015 C 
ATOM     26  C   UNL d   1     -21.137  28.367  26.511  0.00  0.00     0.015 C 
ENDBRANCH   3  24
BRANCH   1  27
ATOM     27  C   UNL d   1     -16.036  27.562  24.843  0.00  0.00     0.045 A 
ATOM     28  C   UNL d   1     -15.516  28.664  24.135  0.00  0.00     0.065 A 
ATOM     29  C   UNL d   1     -16.246  29.467  23.089  0.00  0.00     0.073 C 
ATOM     30  N   UNL d   1     -14.292  28.868  24.544  0.00  0.00    -0.178 NA
ATOM     31  N   UNL d   1     -13.979  27.910  25.515  0.00  0.00    -0.266 N 
ATOM     32  H   UNL d   1     -13.134  27.829  25.984  0.00  0.00     0.190 HD
ATOM     33  C   UNL d   1     -15.059  27.116  25.687  0.00  0.00     0.133 A 
ATOM     34 CL   UNL d   1     -15.182  25.774  26.781  0.00  0.00    -0.062 Cl
ENDBRANCH   1  27
TORSDOF 5
ENDMDL
