MODEL 1
REMARK VINA RESULT:     -10.4      0.000      0.000
REMARK  4 active torsions:
REMARK  status: ('A' for Active; 'I' for Inactive)
REMARK    1  A    between atoms: C_4  and  N_5 
REMARK    2  A    between atoms: N_5  and  C_6 
REMARK    3  A    between atoms: C_9  and  S_10 
REMARK    4  A    between atoms: C_21  and  C_22 
ROOT
ATOM      1  N   UNL d   1     -27.626  22.345  22.525  0.00  0.00    -0.340 N 
ATOM      2  H   UNL d   1     -28.051  22.194  21.665  0.00  0.00     0.167 HD
ENDROOT
BRANCH   1   3
ATOM      3  C   UNL d   1     -28.329  22.124  23.689  0.00  0.00     0.150 A 
ATOM      4  C   UNL d   1     -27.672  22.038  24.902  0.00  0.00     0.078 A 
ATOM      5  C   UNL d   1     -28.416  21.814  26.057  0.00  0.00     0.053 A 
ATOM      6  C   UNL d   1     -27.718  21.716  27.389  0.00  0.00     0.071 C 
ATOM      7  N   UNL d   1     -29.724  21.679  25.993  0.00  0.00    -0.066 NA
ATOM      8  C   UNL d   1     -30.374  21.766  24.828  0.00  0.00     0.753 A 
ATOM      9  N   UNL d   1     -29.687  21.985  23.667  0.00  0.00    -0.041 N 
ATOM     10  N   UNL d   1     -31.660  21.673  24.510  0.00  0.00    -0.037 NA
ATOM     11  N   UNL d   1     -30.641  22.017  22.642  0.00  0.00    -0.128 NA
ATOM     12  C   UNL d   1     -31.810  21.824  23.199  0.00  0.00     0.237 A 
BRANCH  12  13
ATOM     13  C   UNL d   1     -33.126  21.780  22.466  0.00  0.00     0.303 C 
ATOM     14  C   UNL d   1     -33.759  20.398  22.635  0.00  0.00     0.099 C 
ATOM     15  F   UNL d   1     -33.984  22.753  22.990  0.00  0.00    -0.198 F 
ATOM     16  F   UNL d   1     -32.910  22.031  21.106  0.00  0.00    -0.198 F 
ENDBRANCH  12  13
ENDBRANCH   1   3
BRANCH   1  17
ATOM     17  C   UNL d   1     -26.301  22.788  22.581  0.00  0.00     0.036 A 
ATOM     18  C   UNL d   1     -25.990  23.968  23.242  0.00  0.00     0.073 A 
ATOM     19  C   UNL d   1     -24.676  24.400  23.298  0.00  0.00     0.143 A 
ATOM     20  C   UNL d   1     -23.677  23.662  22.688  0.00  0.00     0.137 A 
ATOM     21  F   UNL d   1     -24.371  25.547  23.945  0.00  0.00    -0.204 F 
ATOM     22  C   UNL d   1     -23.987  22.489  22.025  0.00  0.00     0.033 A 
ATOM     23  C   UNL d   1     -25.295  22.050  21.970  0.00  0.00     0.031 A 
BRANCH  20  24
ATOM     24  S   UNL d   1     -21.961  24.233  22.759  0.00  0.00     0.314 SA
ATOM     25  F   UNL d   1     -20.434  24.741  22.820  0.00  0.00    -0.093 F 
ATOM     26  F   UNL d   1     -22.169  24.668  24.295  0.00  0.00    -0.093 F 
ATOM     27  F   UNL d   1     -21.754  23.798  21.223  0.00  0.00    -0.093 F 
ATOM     28  F   UNL d   1     -21.493  22.769  23.237  0.00  0.00    -0.093 F 
ATOM     29  F   UNL d   1     -22.428  25.698  22.280  0.00  0.00    -0.093 F 
ENDBRANCH  20  24
ENDBRANCH   1  17
TORSDOF 4
ENDMDL
