MODEL 1
REMARK VINA RESULT:      -8.7      0.000      0.000
REMARK  7 active torsions:
REMARK  status: ('A' for Active; 'I' for Inactive)
REMARK    1  A    between atoms: C_2  and  N_3 
REMARK    2  A    between atoms: C_4  and  C_5 
REMARK    3  A    between atoms: C_5  and  O_6 
REMARK    4  A    between atoms: N_8  and  C_9 
REMARK    5  A    between atoms: C_12  and  C_13 
REMARK    6  A    between atoms: N_17  and  C_18 
REMARK    7  A    between atoms: C_22  and  O_23 
ROOT
ATOM      1  C   UNL d   1     -28.642  22.159  22.325  0.00  0.00     0.103 A 
ATOM      2  C   UNL d   1     -27.934  23.097  23.056  0.00  0.00     0.048 A 
ATOM      3  C   UNL d   1     -26.587  23.313  22.768  0.00  0.00    -0.010 A 
ATOM      4  C   UNL d   1     -25.783  24.289  23.509  0.00  0.00    -0.027 A 
ATOM      5  C   UNL d   1     -24.493  24.460  23.186  0.00  0.00     0.109 A 
ATOM      6  N   UNL d   1     -23.889  23.754  22.182  0.00  0.00    -0.287 N 
ATOM      7  C   UNL d   1     -24.550  22.837  21.450  0.00  0.00     0.263 A 
ATOM      8  O   UNL d   1     -23.977  22.227  20.564  0.00  0.00    -0.267 OA
ATOM      9  C   UNL d   1     -25.965  22.581  21.728  0.00  0.00     0.046 A 
ATOM     10  C   UNL d   1     -26.703  21.644  21.002  0.00  0.00     0.062 A 
ATOM     11  C   UNL d   1     -28.021  21.440  21.301  0.00  0.00     0.146 A 
ATOM     12  F   UNL d   1     -28.732  20.531  20.597  0.00  0.00    -0.204 F 
ENDROOT
BRANCH   1  13
ATOM     13  N   UNL d   1     -29.992  21.932  22.612  0.00  0.00    -0.178 N 
ATOM     14  N   UNL d   1     -30.517  21.483  23.831  0.00  0.00    -0.147 NA
ATOM     15  C   UNL d   1     -31.803  21.397  23.707  0.00  0.00     0.154 A 
ATOM     16  N   UNL d   1     -32.152  21.776  22.434  0.00  0.00    -0.283 N 
ATOM     17  C   UNL d   1     -31.029  22.100  21.764  0.00  0.00     0.351 A 
ATOM     18  O   UNL d   1     -30.962  22.477  20.608  0.00  0.00    -0.244 OA
BRANCH  15  19
ATOM     19  C   UNL d   1     -32.760  20.952  24.783  0.00  0.00     0.244 C 
BRANCH  19  20
ATOM     20  O   UNL d   1     -32.122  21.054  26.058  0.00  0.00    -0.393 OA
ATOM     21  H   UNL d   1     -31.482  20.351  26.235  0.00  0.00     0.209 HD
ENDBRANCH  19  20
ENDBRANCH  15  19
BRANCH  16  22
ATOM     22  C   UNL d   1     -33.513  21.816  21.895  0.00  0.00     0.131 C 
ATOM     23  C   UNL d   1     -33.958  20.399  21.527  0.00  0.00     0.027 C 
ENDBRANCH  16  22
ENDBRANCH   1  13
BRANCH   4  24
ATOM     24  C   UNL d   1     -26.402  25.093  24.624  0.00  0.00     0.013 C 
ATOM     25  C   UNL d   1     -26.767  24.162  25.782  0.00  0.00     0.015 C 
ATOM     26  C   UNL d   1     -25.402  26.143  25.110  0.00  0.00     0.015 C 
ENDBRANCH   4  24
BRANCH   6  27
ATOM     27  C   UNL d   1     -22.539  23.991  21.908  0.00  0.00     0.069 A 
ATOM     28  C   UNL d   1     -21.584  23.930  22.919  0.00  0.00     0.114 A 
ATOM     29  C   UNL d   1     -20.253  24.167  22.603  0.00  0.00     0.188 A 
ATOM     30 CL   UNL d   1     -22.050  23.558  24.550  0.00  0.00    -0.077 Cl
ATOM     31  N   UNL d   1     -19.895  24.457  21.363  0.00  0.00    -0.236 NA
ATOM     32  C   UNL d   1     -20.776  24.527  20.382  0.00  0.00     0.122 A 
ATOM     33  C   UNL d   1     -22.115  24.300  20.615  0.00  0.00     0.051 A 
BRANCH  29  34
ATOM     34  O   UNL d   1     -19.311  24.107  23.578  0.00  0.00    -0.338 OA
ATOM     35  C   UNL d   1     -18.909  25.345  24.168  0.00  0.00     0.211 C 
ENDBRANCH  29  34
ENDBRANCH   6  27
TORSDOF 7
ENDMDL
