MODEL 1
REMARK VINA RESULT:      -9.9      0.000      0.000
REMARK  6 active torsions:
REMARK  status: ('A' for Active; 'I' for Inactive)
REMARK    1  A    between atoms: C_2  and  O_3 
REMARK    2  A    between atoms: O_3  and  C_4 
REMARK    3  A    between atoms: C_4  and  C_6 
REMARK    4  A    between atoms: C_6  and  C_9 
REMARK    5  A    between atoms: N_10  and  C_11 
REMARK    6  A    between atoms: N_23  and  C_24 
ROOT
ATOM      1  C   UNL d   1     -24.404  24.092  23.340  0.00  0.00     0.232 C 
ATOM      2  C   UNL d   1     -23.851  23.734  22.024  0.00  0.00     0.079 C 
ATOM      3  N   UNL d   1     -23.424  23.457  21.009  0.00  0.00    -0.196 NA
ENDROOT
BRANCH   1   4
ATOM      4  C   UNL d   1     -24.451  25.591  23.474  0.00  0.00     0.281 C 
ATOM      5  O   UNL d   1     -25.419  26.125  23.964  0.00  0.00    -0.263 OA
BRANCH   4   6
ATOM      6  O   UNL d   1     -23.418  26.336  23.051  0.00  0.00    -0.321 OA
BRANCH   6   7
ATOM      7  C   UNL d   1     -22.524  26.863  24.067  0.00  0.00     0.174 C 
ATOM      8  C   UNL d   1     -21.150  26.201  23.930  0.00  0.00     0.034 C 
ENDBRANCH   6   7
ENDBRANCH   4   6
ENDBRANCH   1   4
BRANCH   1   9
ATOM      9  C   UNL d   1     -25.798  23.532  23.469  0.00  0.00     0.119 C 
ATOM     10  N   UNL d   1     -26.234  23.144  24.619  0.00  0.00    -0.263 NA
BRANCH  10  11
ATOM     11  C   UNL d   1     -27.506  22.639  24.737  0.00  0.00     0.057 A 
ATOM     12  C   UNL d   1     -28.368  22.664  23.646  0.00  0.00     0.046 A 
ATOM     13  C   UNL d   1     -29.653  22.145  23.773  0.00  0.00     0.005 A 
ATOM     14  C   UNL d   1     -30.080  21.609  24.998  0.00  0.00     0.046 A 
ATOM     15  C   UNL d   1     -30.788  22.014  22.840  0.00  0.00     0.003 A 
ATOM     16  C   UNL d   1     -29.207  21.596  26.083  0.00  0.00     0.033 A 
ATOM     17  N   UNL d   1     -31.385  21.173  24.851  0.00  0.00    -0.346 N 
ATOM     18  C   UNL d   1     -27.936  22.105  25.956  0.00  0.00     0.034 A 
ATOM     19  C   UNL d   1     -31.828  21.408  23.562  0.00  0.00     0.046 A 
ATOM     20  C   UNL d   1     -33.041  21.157  22.929  0.00  0.00     0.030 A 
ATOM     21  C   UNL d   1     -33.213  21.502  21.606  0.00  0.00     0.002 A 
ATOM     22  C   UNL d   1     -32.185  22.100  20.894  0.00  0.00     0.001 A 
ATOM     23  C   UNL d   1     -30.976  22.358  21.504  0.00  0.00     0.014 A 
BRANCH  17  24
ATOM     24  C   UNL d   1     -32.184  20.551  25.910  0.00  0.00     0.125 C 
ATOM     25  C   UNL d   1     -31.780  19.083  26.058  0.00  0.00     0.027 C 
ENDBRANCH  17  24
ENDBRANCH  10  11
ENDBRANCH   1   9
TORSDOF 6
ENDMDL
