MODEL 1
REMARK VINA RESULT:      -8.9      0.000      0.000
REMARK  7 active torsions:
REMARK  status: ('A' for Active; 'I' for Inactive)
REMARK    1  A    between atoms: O_2  and  C_3 
REMARK    2  A    between atoms: C_8  and  N_9 
REMARK       I    between atoms: N_9  and  C_10 
REMARK    3  A    between atoms: C_10  and  C_12 
REMARK    4  A    between atoms: C_16  and  N_17 
REMARK    5  A    between atoms: C_28  and  O_29 
REMARK    6  A    between atoms: O_29  and  C_30 
REMARK    7  A    between atoms: C_30  and  C_32 
ROOT
ATOM      1  C   UNL d   1     -19.444  25.019  22.679  0.00  0.00     0.068 A 
ATOM      2  C   UNL d   1     -20.050  24.719  21.453  0.00  0.00     0.064 A 
ATOM      3  C   UNL d   1     -21.334  24.224  21.423  0.00  0.00     0.146 A 
ATOM      4  F   UNL d   1     -21.917  23.934  20.239  0.00  0.00    -0.204 F 
ATOM      5  C   UNL d   1     -22.035  24.020  22.612  0.00  0.00     0.104 A 
ATOM      6  C   UNL d   1     -21.442  24.315  23.832  0.00  0.00     0.073 A 
ATOM      7  C   UNL d   1     -20.152  24.813  23.873  0.00  0.00     0.087 A 
ENDROOT
BRANCH   1   8
ATOM      8  C   UNL d   1     -18.071  25.548  22.715  0.00  0.00     0.260 C 
ATOM      9  N   UNL d   1     -17.829  26.757  23.260  0.00  0.00    -0.304 N 
ATOM     10  H   UNL d   1     -18.559  27.278  23.629  0.00  0.00     0.171 HD
ATOM     11  O   UNL d   1     -17.155  24.895  22.253  0.00  0.00    -0.267 OA
BRANCH   9  12
ATOM     12  C   UNL d   1     -16.528  27.259  23.294  0.00  0.00     0.183 A 
ATOM     13  C   UNL d   1     -15.714  27.022  24.407  0.00  0.00     0.211 A 
ATOM     14  N   UNL d   1     -14.479  27.496  24.430  0.00  0.00    -0.232 NA
ATOM     15  C   UNL d   1     -14.021  28.202  23.407  0.00  0.00     0.138 A 
ATOM     16  C   UNL d   1     -14.827  28.440  22.312  0.00  0.00     0.138 A 
ATOM     17  N   UNL d   1     -16.062  27.966  22.276  0.00  0.00    -0.238 NA
BRANCH  13  18
ATOM     18  O   UNL d   1     -16.186  26.303  25.457  0.00  0.00    -0.337 OA
ATOM     19  C   UNL d   1     -15.682  24.976  25.614  0.00  0.00     0.212 C 
ENDBRANCH  13  18
ENDBRANCH   9  12
ENDBRANCH   1   8
BRANCH   7  20
ATOM     20  O   UNL d   1     -19.573  25.108  25.065  0.00  0.00    -0.345 OA
BRANCH  20  21
ATOM     21  C   UNL d   1     -19.772  26.428  25.574  0.00  0.00     0.129 C 
ATOM     22  C   UNL d   1     -21.263  26.773  25.529  0.00  0.00     0.040 C 
BRANCH  21  23
ATOM     23  C   UNL d   1     -19.277  26.497  27.020  0.00  0.00     0.015 C 
ATOM     24  C   UNL d   1     -18.702  27.888  27.296  0.00  0.00     0.007 C 
ATOM     25  C   UNL d   1     -18.208  27.958  28.742  0.00  0.00     0.000 C 
ATOM     26  C   UNL d   1     -19.375  27.691  29.694  0.00  0.00     0.000 C 
ATOM     27  C   UNL d   1     -19.951  26.300  29.418  0.00  0.00     0.000 C 
ATOM     28  C   UNL d   1     -20.446  26.230  27.972  0.00  0.00     0.007 C 
ENDBRANCH  21  23
ENDBRANCH  20  21
ENDBRANCH   7  20
BRANCH   5  29
ATOM     29  N   UNL d   1     -23.337  23.517  22.575  0.00  0.00    -0.178 N 
ATOM     30  C   UNL d   1     -24.409  24.022  23.223  0.00  0.00     0.351 A 
ATOM     31  N   UNL d   1     -25.468  23.263  22.898  0.00  0.00    -0.284 N 
ATOM     32  O   UNL d   1     -24.413  24.988  23.964  0.00  0.00    -0.244 OA
ATOM     33  C   UNL d   1     -25.037  22.250  22.066  0.00  0.00     0.131 A 
ATOM     34  C   UNL d   1     -26.863  23.454  23.311  0.00  0.00     0.135 C 
ATOM     35  N   UNL d   1     -23.775  22.397  21.851  0.00  0.00    -0.149 NA
ATOM     36  C   UNL d   1     -25.940  21.163  21.531  0.00  0.00     0.081 C 
ATOM     37  C   UNL d   1     -27.393  21.641  21.670  0.00  0.00     0.009 C 
ATOM     38  C   UNL d   1     -27.620  22.137  23.102  0.00  0.00     0.021 C 
ENDBRANCH   5  29
TORSDOF 7
ENDMDL
