MODEL 1
REMARK VINA RESULT:      -9.3      0.000      0.000
REMARK  8 active torsions:
REMARK  status: ('A' for Active; 'I' for Inactive)
REMARK    1  A    between atoms: C_2  and  N_3 
REMARK    2  A    between atoms: C_4  and  C_5 
REMARK    3  A    between atoms: C_5  and  O_6 
REMARK    4  A    between atoms: N_8  and  C_9 
REMARK    5  A    between atoms: C_11  and  N_12 
REMARK    6  A    between atoms: N_12  and  C_13 
REMARK    7  A    between atoms: C_16  and  C_17 
REMARK       I    between atoms: C_17  and  N_19 
REMARK    8  A    between atoms: N_19  and  C_20 
ROOT
ATOM      1  C   UNL d   1     -28.343  22.265  22.463  0.00  0.00     0.197 A 
ATOM      2  N   UNL d   1     -27.720  23.015  23.360  0.00  0.00    -0.208 NA
ATOM      3  C   UNL d   1     -26.406  23.171  23.344  0.00  0.00     0.142 A 
ATOM      4  C   UNL d   1     -25.623  22.528  22.368  0.00  0.00     0.081 A 
ATOM      5  C   UNL d   1     -26.259  21.725  21.410  0.00  0.00     0.067 A 
ATOM      6  C   UNL d   1     -27.633  21.598  21.466  0.00  0.00     0.165 A 
ATOM      7  F   UNL d   1     -28.284  20.832  20.562  0.00  0.00    -0.202 F 
ENDROOT
BRANCH   4   8
ATOM      8  C   UNL d   1     -24.162  22.697  22.351  0.00  0.00     0.260 C 
ATOM      9  O   UNL d   1     -23.436  21.727  22.464  0.00  0.00    -0.267 OA
ATOM     10  N   UNL d   1     -23.627  23.925  22.211  0.00  0.00    -0.319 N 
ATOM     11  H   UNL d   1     -24.204  24.703  22.169  0.00  0.00     0.169 HD
BRANCH  10  12
ATOM     12  C   UNL d   1     -22.238  24.080  22.128  0.00  0.00     0.096 A 
ATOM     13  C   UNL d   1     -21.609  24.082  20.890  0.00  0.00     0.064 A 
ATOM     14  C   UNL d   1     -20.237  24.239  20.813  0.00  0.00     0.026 A 
ATOM     15 CL   UNL d   1     -22.546  23.893  19.440  0.00  0.00    -0.082 Cl
ATOM     16  C   UNL d   1     -19.490  24.384  21.966  0.00  0.00     0.005 A 
ATOM     17  C   UNL d   1     -20.111  24.377  23.201  0.00  0.00     0.045 A 
ATOM     18  C   UNL d   1     -21.483  24.226  23.287  0.00  0.00     0.144 A 
ATOM     19  F   UNL d   1     -22.089  24.219  24.495  0.00  0.00    -0.204 F 
ENDBRANCH  10  12
ENDBRANCH   4   8
BRANCH   3  20
ATOM     20  N   UNL d   1     -25.797  23.968  24.297  0.00  0.00    -0.370 N 
ATOM     21  H   UNL d   1     -25.205  23.572  24.955  0.00  0.00     0.161 HD
BRANCH  20  22
ATOM     22  C   UNL d   1     -26.048  25.411  24.314  0.00  0.00     0.075 C 
ATOM     23  C   UNL d   1     -24.759  26.158  23.963  0.00  0.00     0.031 C 
ATOM     24  C   UNL d   1     -26.518  25.831  25.708  0.00  0.00     0.031 C 
ENDBRANCH  20  22
ENDBRANCH   3  20
BRANCH   1  25
ATOM     25  N   UNL d   1     -29.728  22.138  22.520  0.00  0.00    -0.159 N 
ATOM     26  N   UNL d   1     -30.618  22.258  21.444  0.00  0.00    -0.145 NA
ATOM     27  C   UNL d   1     -31.818  22.073  21.892  0.00  0.00     0.154 A 
ATOM     28  N   UNL d   1     -31.756  21.838  23.244  0.00  0.00    -0.283 N 
ATOM     29  C   UNL d   1     -30.463  21.881  23.623  0.00  0.00     0.352 A 
ATOM     30  O   UNL d   1     -30.036  21.718  24.752  0.00  0.00    -0.244 OA
BRANCH  27  31
ATOM     31  C   UNL d   1     -33.079  22.112  21.067  0.00  0.00     0.244 C 
BRANCH  31  32
ATOM     32  O   UNL d   1     -33.525  20.777  20.817  0.00  0.00    -0.393 OA
ATOM     33  H   UNL d   1     -33.182  20.124  21.443  0.00  0.00     0.209 HD
ENDBRANCH  31  32
ENDBRANCH  27  31
BRANCH  28  34
ATOM     34  C   UNL d   1     -32.900  21.588  24.125  0.00  0.00     0.131 C 
ATOM     35  C   UNL d   1     -33.115  20.080  24.266  0.00  0.00     0.027 C 
ENDBRANCH  28  34
ENDBRANCH   1  25
TORSDOF 8
ENDMDL
