MODEL 1
REMARK VINA RESULT:      -9.1      0.000      0.000
REMARK  6 active torsions:
REMARK  status: ('A' for Active; 'I' for Inactive)
REMARK    1  A    between atoms: C_2  and  N_3 
REMARK    2  A    between atoms: C_4  and  C_5 
REMARK    3  A    between atoms: C_5  and  O_6 
REMARK    4  A    between atoms: N_8  and  C_9 
REMARK    5  A    between atoms: C_12  and  C_13 
REMARK    6  A    between atoms: N_17  and  C_18 
ROOT
ATOM      1  C   UNL d   1     -28.970  22.153  22.089  0.00  0.00     0.103 A 
ATOM      2  C   UNL d   1     -28.286  22.948  22.991  0.00  0.00     0.048 A 
ATOM      3  C   UNL d   1     -26.905  23.087  22.870  0.00  0.00    -0.010 A 
ATOM      4  C   UNL d   1     -26.125  23.914  23.793  0.00  0.00    -0.027 A 
ATOM      5  C   UNL d   1     -24.796  24.012  23.630  0.00  0.00     0.109 A 
ATOM      6  N   UNL d   1     -24.133  23.365  22.625  0.00  0.00    -0.286 N 
ATOM      7  C   UNL d   1     -24.769  22.583  21.729  0.00  0.00     0.263 A 
ATOM      8  O   UNL d   1     -24.143  22.022  20.848  0.00  0.00    -0.267 OA
ATOM      9  C   UNL d   1     -26.221  22.415  21.829  0.00  0.00     0.046 A 
ATOM     10  C   UNL d   1     -26.934  21.619  20.930  0.00  0.00     0.062 A 
ATOM     11  C   UNL d   1     -28.287  21.489  21.066  0.00  0.00     0.146 A 
ATOM     12  F   UNL d   1     -28.974  20.712  20.199  0.00  0.00    -0.204 F 
ENDROOT
BRANCH   1  13
ATOM     13  N   UNL d   1     -30.356  22.008  22.205  0.00  0.00    -0.178 N 
ATOM     14  N   UNL d   1     -31.290  22.089  21.161  0.00  0.00    -0.147 NA
ATOM     15  C   UNL d   1     -32.469  21.902  21.662  0.00  0.00     0.154 A 
ATOM     16  N   UNL d   1     -32.349  21.699  23.015  0.00  0.00    -0.283 N 
ATOM     17  C   UNL d   1     -31.044  21.771  23.341  0.00  0.00     0.351 A 
ATOM     18  O   UNL d   1     -30.571  21.643  24.456  0.00  0.00    -0.244 OA
BRANCH  15  19
ATOM     19  C   UNL d   1     -33.761  21.907  20.887  0.00  0.00     0.244 C 
BRANCH  19  20
ATOM     20  O   UNL d   1     -34.594  22.970  21.355  0.00  0.00    -0.393 OA
ATOM     21  H   UNL d   1     -35.521  22.887  21.095  0.00  0.00     0.209 HD
ENDBRANCH  19  20
ENDBRANCH  15  19
BRANCH  16  22
ATOM     22  C   UNL d   1     -33.454  21.452  23.946  0.00  0.00     0.131 C 
ATOM     23  C   UNL d   1     -33.495  19.965  24.306  0.00  0.00     0.027 C 
ENDBRANCH  16  22
ENDBRANCH   1  13
BRANCH   4  24
ATOM     24  C   UNL d   1     -26.809  24.649  24.918  0.00  0.00     0.013 C 
ATOM     25  C   UNL d   1     -26.926  23.727  26.133  0.00  0.00     0.015 C 
ATOM     26  C   UNL d   1     -25.987  25.884  25.292  0.00  0.00     0.015 C 
ENDBRANCH   4  24
BRANCH   6  27
ATOM     27  C   UNL d   1     -22.738  23.519  22.523  0.00  0.00     0.074 A 
ATOM     28  C   UNL d   1     -22.153  24.259  21.549  0.00  0.00     0.026 A 
ATOM     29  S   UNL d   1     -20.461  24.146  21.840  0.00  0.00     0.008 SA
ATOM     30  C   UNL d   1     -22.840  25.022  20.446  0.00  0.00     0.060 C 
ATOM     31  N   UNL d   1     -20.588  23.141  23.200  0.00  0.00    -0.221 NA
ATOM     32  C   UNL d   1     -21.854  22.922  23.402  0.00  0.00     0.157 A 
ENDBRANCH   6  27
TORSDOF 6
ENDMDL
