MODEL 1
REMARK VINA RESULT:      -9.8      0.000      0.000
REMARK  7 active torsions:
REMARK  status: ('A' for Active; 'I' for Inactive)
REMARK    1  A    between atoms: S_2  and  C_3 
REMARK    2  A    between atoms: N_5  and  C_6 
REMARK    3  A    between atoms: C_8  and  O_9 
REMARK    4  A    between atoms: O_9  and  C_10 
REMARK    5  A    between atoms: C_10  and  C_12 
REMARK    6  A    between atoms: C_16  and  C_17 
REMARK       I    between atoms: C_17  and  N_19 
REMARK    7  A    between atoms: N_19  and  C_20 
ROOT
ATOM      1  C   UNL d   1     -26.789  23.360  23.762  0.00  0.00     0.105 A 
ATOM      2  C   UNL d   1     -25.923  22.853  22.802  0.00  0.00     0.073 A 
ATOM      3  C   UNL d   1     -24.664  23.404  22.644  0.00  0.00     0.087 A 
ATOM      4  C   UNL d   1     -24.261  24.470  23.464  0.00  0.00     0.068 A 
ATOM      5  C   UNL d   1     -25.141  24.975  24.429  0.00  0.00     0.064 A 
ATOM      6  C   UNL d   1     -26.393  24.422  24.574  0.00  0.00     0.146 A 
ATOM      7  F   UNL d   1     -27.241  24.911  25.505  0.00  0.00    -0.204 F 
ENDROOT
BRANCH   4   8
ATOM      8  C   UNL d   1     -22.921  25.058  23.306  0.00  0.00     0.259 C 
ATOM      9  O   UNL d   1     -22.773  26.065  22.639  0.00  0.00    -0.267 OA
ATOM     10  N   UNL d   1     -21.857  24.480  23.900  0.00  0.00    -0.318 N 
ATOM     11  H   UNL d   1     -21.982  23.707  24.471  0.00  0.00     0.169 HD
BRANCH  10  12
ATOM     12  C   UNL d   1     -20.572  24.999  23.692  0.00  0.00     0.113 A 
ATOM     13  C   UNL d   1     -20.085  26.005  24.517  0.00  0.00     0.146 A 
ATOM     14  C   UNL d   1     -18.816  26.514  24.310  0.00  0.00     0.045 A 
ATOM     15  F   UNL d   1     -20.851  26.486  25.521  0.00  0.00    -0.204 F 
ATOM     16  C   UNL d   1     -18.032  26.021  23.282  0.00  0.00     0.006 A 
ATOM     17  C   UNL d   1     -18.512  25.021  22.459  0.00  0.00     0.045 A 
ATOM     18  C   UNL d   1     -19.778  24.503  22.664  0.00  0.00     0.146 A 
ATOM     19  F   UNL d   1     -20.246  23.521  21.862  0.00  0.00    -0.204 F 
ENDBRANCH  10  12
ENDBRANCH   4   8
BRANCH   3  20
ATOM     20  O   UNL d   1     -23.819  22.914  21.703  0.00  0.00    -0.336 OA
BRANCH  20  21
ATOM     21  C   UNL d   1     -23.957  23.428  20.376  0.00  0.00     0.232 C 
ATOM     22  C   UNL d   1     -22.590  23.882  19.860  0.00  0.00     0.049 C 
BRANCH  21  23
ATOM     23  C   UNL d   1     -24.512  22.336  19.460  0.00  0.00     0.413 C 
ATOM     24  F   UNL d   1     -24.584  22.818  18.149  0.00  0.00    -0.168 F 
ATOM     25  F   UNL d   1     -23.670  21.220  19.503  0.00  0.00    -0.168 F 
ATOM     26  F   UNL d   1     -25.792  21.970  19.893  0.00  0.00    -0.168 F 
ENDBRANCH  21  23
ENDBRANCH  20  21
ENDBRANCH   3  20
BRANCH   1  27
ATOM     27  N   UNL d   1     -28.060  22.803  23.915  0.00  0.00    -0.177 N 
ATOM     28  N   UNL d   1     -29.137  22.938  23.028  0.00  0.00    -0.137 NA
ATOM     29  C   UNL d   1     -30.146  22.275  23.516  0.00  0.00     0.191 A 
ATOM     30  N   UNL d   1     -29.762  21.704  24.708  0.00  0.00    -0.280 N 
ATOM     31  C   UNL d   1     -28.475  22.031  24.941  0.00  0.00     0.351 A 
ATOM     32  C   UNL d   1     -30.605  20.876  25.574  0.00  0.00     0.163 C 
ATOM     33  O   UNL d   1     -27.809  21.694  25.902  0.00  0.00    -0.244 OA
BRANCH  29  34
ATOM     34  S   UNL d   1     -31.738  22.133  22.775  0.00  0.00    -0.095 SA
ATOM     35  C   UNL d   1     -31.276  22.183  21.025  0.00  0.00     0.099 C 
ENDBRANCH  29  34
ENDBRANCH   1  27
TORSDOF 7
ENDMDL
