MODEL 1
REMARK VINA RESULT:      -9.6      0.000      0.000
REMARK  6 active torsions:
REMARK  status: ('A' for Active; 'I' for Inactive)
REMARK    1  A    between atoms: C_2  and  O_3 
REMARK    2  A    between atoms: C_2  and  C_33 
REMARK    3  A    between atoms: O_3  and  C_4 
REMARK    4  A    between atoms: C_6  and  N_7 
REMARK    5  A    between atoms: C_20  and  C_21 
REMARK       I    between atoms: C_21  and  N_23 
REMARK    6  A    between atoms: N_23  and  C_24 
ROOT
ATOM      1  C   UNL d   1     -20.323  24.780  23.931  0.00  0.00     0.087 A 
ATOM      2  C   UNL d   1     -21.614  24.283  23.867  0.00  0.00     0.073 A 
ATOM      3  C   UNL d   1     -22.181  23.981  22.638  0.00  0.00     0.104 A 
ATOM      4  C   UNL d   1     -21.459  24.182  21.462  0.00  0.00     0.146 A 
ATOM      5  F   UNL d   1     -22.019  23.885  20.269  0.00  0.00    -0.204 F 
ATOM      6  C   UNL d   1     -20.177  24.682  21.514  0.00  0.00     0.064 A 
ATOM      7  C   UNL d   1     -19.596  24.989  22.750  0.00  0.00     0.068 A 
ENDROOT
BRANCH   7   8
ATOM      8  C   UNL d   1     -18.226  25.524  22.809  0.00  0.00     0.259 C 
ATOM      9  O   UNL d   1     -17.328  24.964  22.211  0.00  0.00    -0.267 OA
ATOM     10  N   UNL d   1     -17.968  26.637  23.525  0.00  0.00    -0.322 N 
ATOM     11  H   UNL d   1     -18.664  27.034  24.072  0.00  0.00     0.169 HD
BRANCH  10  12
ATOM     12  C   UNL d   1     -16.695  27.215  23.484  0.00  0.00     0.043 A 
ATOM     13  C   UNL d   1     -15.772  26.934  24.481  0.00  0.00     0.004 A 
ATOM     14  C   UNL d   1     -14.511  27.503  24.434  0.00  0.00    -0.020 A 
ATOM     15  C   UNL d   1     -15.848  26.052  25.706  0.00  0.00     0.311 C 
ATOM     16  C   UNL d   1     -14.176  28.358  23.401  0.00  0.00     0.009 A 
ATOM     17  C   UNL d   1     -13.727  27.017  25.632  0.00  0.00     0.309 C 
ATOM     18  C   UNL d   1     -15.097  28.643  22.409  0.00  0.00     0.003 A 
ATOM     19  C   UNL d   1     -16.354  28.074  22.447  0.00  0.00     0.030 A 
ATOM     20  N   UNL d   1     -14.447  25.818  26.120  0.00  0.00     0.091 N 
ATOM     21  H   UNL d   1     -14.375  25.739  27.124  0.00  0.00     0.316 HD
ENDBRANCH  10  12
ENDBRANCH   7   8
BRANCH   1  22
ATOM     22  O   UNL d   1     -19.765  25.070  25.134  0.00  0.00    -0.345 OA
BRANCH  22  23
ATOM     23  C   UNL d   1     -20.485  25.962  25.985  0.00  0.00     0.129 C 
ATOM     24  C   UNL d   1     -21.005  27.144  25.164  0.00  0.00     0.040 C 
BRANCH  23  25
ATOM     25  C   UNL d   1     -19.557  26.476  27.088  0.00  0.00     0.015 C 
ATOM     26  C   UNL d   1     -19.091  27.892  26.744  0.00  0.00     0.007 C 
ATOM     27  C   UNL d   1     -18.163  28.405  27.847  0.00  0.00     0.000 C 
ATOM     28  C   UNL d   1     -18.917  28.426  29.179  0.00  0.00     0.000 C 
ATOM     29  C   UNL d   1     -19.383  27.010  29.523  0.00  0.00     0.000 C 
ATOM     30  C   UNL d   1     -20.311  26.496  28.419  0.00  0.00     0.007 C 
ENDBRANCH  23  25
ENDBRANCH  22  23
ENDBRANCH   1  22
BRANCH   3  31
ATOM     31  N   UNL d   1     -23.482  23.473  22.578  0.00  0.00    -0.178 N 
ATOM     32  C   UNL d   1     -24.562  23.963  23.226  0.00  0.00     0.351 A 
ATOM     33  N   UNL d   1     -25.615  23.206  22.876  0.00  0.00    -0.284 N 
ATOM     34  O   UNL d   1     -24.578  24.913  23.986  0.00  0.00    -0.244 OA
ATOM     35  C   UNL d   1     -25.173  22.212  22.027  0.00  0.00     0.131 A 
ATOM     36  C   UNL d   1     -27.015  23.383  23.278  0.00  0.00     0.135 C 
ATOM     37  N   UNL d   1     -23.908  22.368  21.828  0.00  0.00    -0.149 NA
ATOM     38  C   UNL d   1     -26.066  21.133  21.461  0.00  0.00     0.081 C 
ATOM     39  C   UNL d   1     -27.522  21.602  21.596  0.00  0.00     0.009 C 
ATOM     40  C   UNL d   1     -27.764  22.068  23.035  0.00  0.00     0.021 C 
ENDBRANCH   3  31
TORSDOF 6
ENDMDL
