MODEL 1
REMARK VINA RESULT:     -11.1      0.000      0.000
REMARK  6 active torsions:
REMARK  status: ('A' for Active; 'I' for Inactive)
REMARK    1  A    between atoms: C_2  and  O_3 
REMARK    2  A    between atoms: C_2  and  C_4 
REMARK    3  A    between atoms: C_6  and  C_7 
REMARK    4  A    between atoms: C_12  and  N_13 
REMARK    5  A    between atoms: N_13  and  C_14 
REMARK    6  A    between atoms: C_17  and  C_18 
ROOT
ATOM      1  N   UNL d   1     -28.038  22.548  24.286  0.00  0.00    -0.353 N 
ATOM      2  H   UNL d   1     -28.080  22.422  25.246  0.00  0.00     0.166 HD
ENDROOT
BRANCH   1   3
ATOM      3  C   UNL d   1     -29.182  22.386  23.515  0.00  0.00     0.049 A 
ATOM      4  C   UNL d   1     -30.362  21.895  24.096  0.00  0.00     0.064 A 
ATOM      5  C   UNL d   1     -31.508  21.743  23.310  0.00  0.00     0.028 A 
ATOM      6  C   UNL d   1     -31.469  22.062  21.970  0.00  0.00    -0.053 A 
ATOM      7  C   UNL d   1     -30.301  22.542  21.399  0.00  0.00     0.010 A 
ATOM      8  C   UNL d   1     -29.164  22.703  22.161  0.00  0.00     0.031 A 
BRANCH   4   9
ATOM      9  C   UNL d   1     -30.394  21.549  25.528  0.00  0.00     0.178 C 
ATOM     10  O   UNL d   1     -31.331  21.899  26.217  0.00  0.00    -0.646 OA
BRANCH   9  11
ATOM     11  O   UNL d   1     -29.384  20.844  26.073  0.00  0.00    -0.773 OA
ATOM     12  H   UNL d   1     -28.486  21.091  25.814  0.00  0.00     0.167 HD
ENDBRANCH   9  11
ENDBRANCH   4   9
BRANCH   6  13
ATOM     13  C   UNL d   1     -32.704  21.892  21.124  0.00  0.00     0.018 A 
ATOM     14  C   UNL d   1     -33.730  20.849  21.574  0.00  0.00     0.010 A 
ATOM     15  C   UNL d   1     -34.038  22.341  21.725  0.00  0.00     0.010 A 
ENDBRANCH   6  13
ENDBRANCH   1   3
BRANCH   1  16
ATOM     16  C   UNL d   1     -26.829  22.894  23.677  0.00  0.00     0.068 A 
ATOM     17  C   UNL d   1     -26.188  24.090  23.994  0.00  0.00     0.150 A 
ATOM     18  N   UNL d   1     -25.042  24.382  23.402  0.00  0.00    -0.238 NA
ATOM     19  C   UNL d   1     -24.510  23.558  22.511  0.00  0.00     0.160 A 
ATOM     20  N   UNL d   1     -25.092  22.410  22.185  0.00  0.00    -0.238 NA
ATOM     21  C   UNL d   1     -26.235  22.051  22.739  0.00  0.00     0.150 A 
BRANCH  19  22
ATOM     22  C   UNL d   1     -23.227  23.924  21.865  0.00  0.00     0.033 A 
ATOM     23  C   UNL d   1     -22.023  23.738  22.545  0.00  0.00     0.048 A 
ATOM     24  C   UNL d   1     -20.831  24.082  21.938  0.00  0.00     0.025 A 
ATOM     25 CL   UNL d   1     -22.024  23.084  24.152  0.00  0.00    -0.083 Cl
ATOM     26  C   UNL d   1     -20.829  24.608  20.659  0.00  0.00     0.002 A 
ATOM     27  C   UNL d   1     -22.021  24.795  19.980  0.00  0.00     0.001 A 
ATOM     28  C   UNL d   1     -23.218  24.456  20.577  0.00  0.00     0.017 A 
ENDBRANCH  19  22
ENDBRANCH   1  16
TORSDOF 6
ENDMDL
