MODEL 1
REMARK VINA RESULT:     -12.6      0.000      0.000
REMARK  5 active torsions:
REMARK  status: ('A' for Active; 'I' for Inactive)
REMARK    1  A    between atoms: C_4  and  C_5 
REMARK    2  A    between atoms: C_5  and  O_7 
REMARK    3  A    between atoms: C_11  and  C_12 
REMARK    4  A    between atoms: C_17  and  C_18 
REMARK    5  A    between atoms: C_22  and  O_23 
ROOT
ATOM      1  C   UNL d   1     -26.848  22.701  22.952  0.00  0.00     0.093 A 
ATOM      2  C   UNL d   1     -26.235  23.757  23.633  0.00  0.00     0.173 A 
ATOM      3  F   UNL d   1     -26.927  24.459  24.556  0.00  0.00    -0.202 F 
ATOM      4  C   UNL d   1     -24.920  24.083  23.361  0.00  0.00     0.170 A 
ATOM      5  F   UNL d   1     -24.327  25.103  24.019  0.00  0.00    -0.202 F 
ATOM      6  C   UNL d   1     -24.204  23.358  22.407  0.00  0.00     0.058 A 
ATOM      7  C   UNL d   1     -24.817  22.307  21.722  0.00  0.00     0.170 A 
ATOM      8  F   UNL d   1     -24.124  21.610  20.795  0.00  0.00    -0.202 F 
ATOM      9  C   UNL d   1     -26.130  21.975  21.996  0.00  0.00     0.173 A 
ATOM     10  F   UNL d   1     -26.720  20.954  21.338  0.00  0.00    -0.202 F 
ENDROOT
BRANCH   1  11
ATOM     11  C   UNL d   1     -28.253  22.353  23.242  0.00  0.00     0.145 A 
ATOM     12  N   UNL d   1     -28.700  21.776  24.401  0.00  0.00    -0.337 N 
ATOM     13  C   UNL d   1     -30.062  21.615  24.279  0.00  0.00     0.080 A 
ATOM     14  H   UNL d   1     -28.158  21.524  25.165  0.00  0.00     0.167 HD
ATOM     15  C   UNL d   1     -31.057  21.092  25.117  0.00  0.00     0.067 A 
ATOM     16  C   UNL d   1     -30.407  22.116  23.012  0.00  0.00     0.087 A 
ATOM     17  C   UNL d   1     -32.383  21.075  24.681  0.00  0.00     0.027 A 
ATOM     18  C   UNL d   1     -32.712  21.570  23.432  0.00  0.00    -0.059 A 
ATOM     19  C   UNL d   1     -34.149  21.544  22.977  0.00  0.00     0.048 C 
ATOM     20  C   UNL d   1     -31.743  22.086  22.600  0.00  0.00     0.040 A 
ATOM     21  N   UNL d   1     -29.263  22.555  22.430  0.00  0.00    -0.228 NA
BRANCH  15  22
ATOM     22  C   UNL d   1     -30.706  20.564  26.447  0.00  0.00     0.178 C 
ATOM     23  O   UNL d   1     -30.039  21.234  27.211  0.00  0.00    -0.646 OA
BRANCH  22  24
ATOM     24  O   UNL d   1     -31.124  19.337  26.816  0.00  0.00    -0.773 OA
ATOM     25  H   UNL d   1     -30.578  18.587  26.542  0.00  0.00     0.167 HD
ENDBRANCH  22  24
ENDBRANCH  15  22
ENDBRANCH   1  11
BRANCH   6  26
ATOM     26  C   UNL d   1     -22.793  23.708  22.115  0.00  0.00    -0.017 A 
ATOM     27  C   UNL d   1     -22.479  24.456  20.981  0.00  0.00     0.049 A 
ATOM     28  C   UNL d   1     -21.159  24.774  20.711  0.00  0.00     0.066 A 
ATOM     29  C   UNL d   1     -20.153  24.360  21.574  0.00  0.00     0.036 A 
ATOM     30  C   UNL d   1     -20.464  23.619  22.699  0.00  0.00     0.004 A 
ATOM     31  C   UNL d   1     -21.777  23.291  22.973  0.00  0.00     0.012 A 
BRANCH  28  32
ATOM     32  O   UNL d   1     -20.848  25.498  19.604  0.00  0.00    -0.361 OA
ATOM     33  H   UNL d   1     -21.454  25.364  18.863  0.00  0.00     0.217 HD
ENDBRANCH  28  32
ENDBRANCH   6  26
TORSDOF 5
ENDMDL
