MODEL 1
REMARK VINA RESULT:      -9.5      0.000      0.000
REMARK  7 active torsions:
REMARK  status: ('A' for Active; 'I' for Inactive)
REMARK    1  A    between atoms: C_2  and  C_3 
REMARK    2  A    between atoms: C_3  and  O_4 
REMARK    3  A    between atoms: C_5  and  C_8 
REMARK       I    between atoms: C_8  and  N_10 
REMARK    4  A    between atoms: N_10  and  C_11 
REMARK    5  A    between atoms: C_14  and  O_15 
REMARK    6  A    between atoms: O_15  and  S_16 
REMARK    7  A    between atoms: S_16  and  C_19 
ROOT
ATOM      1  C   UNL d   1     -31.970  22.077  21.788  0.00  0.00     0.069 C 
ATOM      2  C   UNL d   1     -31.011  22.188  22.750  0.00  0.00     0.141 C 
ATOM      3  C   UNL d   1     -31.372  22.101  24.134  0.00  0.00     0.107 C 
ATOM      4  N   UNL d   1     -31.657  22.033  25.231  0.00  0.00    -0.191 NA
ENDROOT
BRANCH   2   5
ATOM      5  C   UNL d   1     -29.607  22.396  22.369  0.00  0.00     0.269 C 
ATOM      6  O   UNL d   1     -29.330  23.158  21.462  0.00  0.00    -0.266 OA
ATOM      7  N   UNL d   1     -28.627  21.743  23.024  0.00  0.00    -0.322 N 
ATOM      8  H   UNL d   1     -28.850  21.085  23.700  0.00  0.00     0.169 HD
BRANCH   7   9
ATOM      9  C   UNL d   1     -27.285  22.014  22.726  0.00  0.00     0.035 A 
ATOM     10  C   UNL d   1     -26.680  21.407  21.633  0.00  0.00     0.032 A 
ATOM     11  C   UNL d   1     -25.357  21.674  21.340  0.00  0.00     0.040 A 
ATOM     12  C   UNL d   1     -24.633  22.550  22.137  0.00  0.00     0.089 A 
ATOM     13  C   UNL d   1     -25.237  23.155  23.229  0.00  0.00     0.040 A 
ATOM     14  C   UNL d   1     -26.561  22.894  23.520  0.00  0.00     0.032 A 
BRANCH  12  15
ATOM     15  O   UNL d   1     -23.331  22.812  21.849  0.00  0.00    -0.226 OA
BRANCH  15  16
ATOM     16  S   UNL d   1     -23.079  24.233  21.364  0.00  0.00     0.374 S 
ATOM     17  O   UNL d   1     -23.487  24.218  20.003  0.00  0.00    -0.189 OA
ATOM     18  O   UNL d   1     -23.741  25.052  22.318  0.00  0.00    -0.189 OA
BRANCH  16  19
ATOM     19  C   UNL d   1     -21.280  24.440  21.487  0.00  0.00     0.524 C 
ATOM     20  F   UNL d   1     -20.753  23.449  22.321  0.00  0.00    -0.155 F 
ATOM     21  F   UNL d   1     -20.711  24.328  20.213  0.00  0.00    -0.155 F 
ATOM     22  F   UNL d   1     -20.991  25.701  22.019  0.00  0.00    -0.155 F 
ENDBRANCH  16  19
ENDBRANCH  15  16
ENDBRANCH  12  15
ENDBRANCH   7   9
ENDBRANCH   2   5
BRANCH   1  23
ATOM     23  C   UNL d   1     -33.410  21.865  22.180  0.00  0.00     0.061 C 
ATOM     24  C   UNL d   1     -33.910  20.544  21.592  0.00  0.00     0.012 C 
ENDBRANCH   1  23
BRANCH   1  25
ATOM     25  O   UNL d   1     -31.631  22.158  20.490  0.00  0.00    -0.363 OA
ATOM     26  H   UNL d   1     -32.352  22.259  19.854  0.00  0.00     0.217 HD
ENDBRANCH   1  25
TORSDOF 7
ENDMDL
