MODEL 1
REMARK VINA RESULT:     -11.9      0.000      0.000
REMARK  7 active torsions:
REMARK  status: ('A' for Active; 'I' for Inactive)
REMARK    1  A    between atoms: C_4  and  C_5 
REMARK    2  A    between atoms: C_5  and  O_7 
REMARK    3  A    between atoms: C_10  and  C_11 
REMARK    4  A    between atoms: C_14  and  C_15 
REMARK    5  A    between atoms: C_18  and  O_19 
REMARK    6  A    between atoms: O_19  and  C_20 
REMARK    7  A    between atoms: C_23  and  C_24 
ROOT
ATOM      1  C   UNL d   1     -27.783  22.434  23.405  0.00  0.00     0.010 A 
ATOM      2  C   UNL d   1     -27.021  21.869  22.380  0.00  0.00     0.016 A 
ATOM      3  C   UNL d   1     -25.717  22.267  22.192  0.00  0.00     0.013 A 
ATOM      4  C   UNL d   1     -25.154  23.231  23.029  0.00  0.00    -0.026 A 
ATOM      5  C   UNL d   1     -25.916  23.801  24.050  0.00  0.00     0.013 A 
ATOM      6  C   UNL d   1     -27.220  23.404  24.239  0.00  0.00     0.016 A 
ENDROOT
BRANCH   1   7
ATOM      7  C   UNL d   1     -29.183  22.008  23.607  0.00  0.00     0.139 A 
ATOM      8  N   UNL d   1     -30.151  22.147  22.730  0.00  0.00    -0.227 NA
ATOM      9  C   UNL d   1     -31.296  21.654  23.232  0.00  0.00     0.102 A 
ATOM     10  C   UNL d   1     -32.611  21.550  22.728  0.00  0.00     0.069 A 
ATOM     11  C   UNL d   1     -31.014  21.171  24.523  0.00  0.00     0.064 A 
ATOM     12  C   UNL d   1     -33.603  20.971  23.517  0.00  0.00     0.027 A 
ATOM     13  C   UNL d   1     -33.304  20.502  24.782  0.00  0.00    -0.059 A 
ATOM     14  C   UNL d   1     -34.390  19.879  25.622  0.00  0.00     0.048 C 
ATOM     15  C   UNL d   1     -32.020  20.600  25.285  0.00  0.00     0.038 A 
ATOM     16  N   UNL d   1     -29.667  21.403  24.734  0.00  0.00    -0.338 N 
ATOM     17  H   UNL d   1     -29.162  21.179  25.531  0.00  0.00     0.167 HD
BRANCH  10  18
ATOM     18  C   UNL d   1     -32.930  22.049  21.380  0.00  0.00     0.178 C 
ATOM     19  O   UNL d   1     -34.053  22.438  21.126  0.00  0.00    -0.646 OA
BRANCH  18  20
ATOM     20  O   UNL d   1     -31.976  22.076  20.428  0.00  0.00    -0.773 OA
ATOM     21  H   UNL d   1     -32.045  21.424  19.718  0.00  0.00     0.167 HD
ENDBRANCH  18  20
ENDBRANCH  10  18
ENDBRANCH   1   7
BRANCH   4  22
ATOM     22  C   UNL d   1     -23.748  23.655  22.830  0.00  0.00    -0.026 A 
ATOM     23  C   UNL d   1     -22.731  23.081  23.594  0.00  0.00     0.015 A 
ATOM     24  C   UNL d   1     -21.423  23.478  23.406  0.00  0.00     0.038 A 
ATOM     25  C   UNL d   1     -21.118  24.446  22.458  0.00  0.00     0.076 A 
ATOM     26  C   UNL d   1     -22.130  25.018  21.696  0.00  0.00     0.038 A 
ATOM     27  C   UNL d   1     -23.438  24.622  21.875  0.00  0.00     0.015 A 
BRANCH  25  28
ATOM     28  O   UNL d   1     -19.830  24.834  22.276  0.00  0.00    -0.311 OA
BRANCH  28  29
ATOM     29  C   UNL d   1     -19.260  25.618  23.226  0.00  0.00     0.076 A 
ATOM     30  C   UNL d   1     -20.043  26.148  24.246  0.00  0.00     0.038 A 
ATOM     31  C   UNL d   1     -19.472  26.940  25.210  0.00  0.00     0.017 A 
ATOM     32  C   UNL d   1     -18.099  27.213  25.164  0.00  0.00     0.002 A 
ATOM     33  C   UNL d   1     -17.316  26.676  24.134  0.00  0.00     0.017 A 
ATOM     34  C   UNL d   1     -17.895  25.881  23.179  0.00  0.00     0.038 A 
BRANCH  32  35
ATOM     35  C   UNL d   1     -17.482  28.060  26.193  0.00  0.00     0.269 C 
ATOM     36  O   UNL d   1     -18.025  29.089  26.539  0.00  0.00    -0.301 OA
ENDBRANCH  32  35
ENDBRANCH  28  29
ENDBRANCH  25  28
ENDBRANCH   4  22
TORSDOF 7
ENDMDL
