MODEL 1
REMARK VINA RESULT:      -9.6      0.000      0.000
REMARK  10 active torsions:
REMARK  status: ('A' for Active; 'I' for Inactive)
REMARK    1  A    between atoms: C_2  and  C_3 
REMARK    2  A    between atoms: N_5  and  C_6 
REMARK    3  A    between atoms: C_8  and  O_9 
REMARK    4  A    between atoms: O_9  and  C_10 
REMARK    5  A    between atoms: C_10  and  C_12 
REMARK    6  A    between atoms: C_16  and  C_17 
REMARK       I    between atoms: C_17  and  N_19 
REMARK    7  A    between atoms: N_19  and  C_20 
REMARK    8  A    between atoms: N_33  and  C_34 
REMARK    9  A    between atoms: C_34  and  C_35 
REMARK   10  A    between atoms: C_35  and  O_36 
ROOT
ATOM      1  C   UNL d   1     -26.689  23.367  23.583  0.00  0.00     0.104 A 
ATOM      2  C   UNL d   1     -25.799  22.889  22.629  0.00  0.00     0.073 A 
ATOM      3  C   UNL d   1     -24.538  23.445  22.519  0.00  0.00     0.087 A 
ATOM      4  C   UNL d   1     -24.160  24.493  23.372  0.00  0.00     0.068 A 
ATOM      5  C   UNL d   1     -25.061  24.968  24.331  0.00  0.00     0.064 A 
ATOM      6  C   UNL d   1     -26.315  24.407  24.432  0.00  0.00     0.146 A 
ATOM      7  F   UNL d   1     -27.185  24.867  25.358  0.00  0.00    -0.204 F 
ENDROOT
BRANCH   1   8
ATOM      8  N   UNL d   1     -27.960  22.800  23.695  0.00  0.00    -0.178 N 
ATOM      9  N   UNL d   1     -29.024  22.959  22.795  0.00  0.00    -0.149 NA
ATOM     10  C   UNL d   1     -30.033  22.281  23.241  0.00  0.00     0.131 A 
ATOM     11  N   UNL d   1     -29.672  21.671  24.417  0.00  0.00    -0.282 N 
ATOM     12  C   UNL d   1     -28.391  21.992  24.686  0.00  0.00     0.351 A 
ATOM     13  O   UNL d   1     -27.742  21.623  25.649  0.00  0.00    -0.244 OA
BRANCH  10  14
ATOM     14  C   UNL d   1     -31.381  22.179  22.577  0.00  0.00     0.076 C 
ATOM     15  C   UNL d   1     -31.205  22.192  21.058  0.00  0.00     0.013 C 
ENDBRANCH  10  14
BRANCH  11  16
ATOM     16  C   UNL d   1     -30.532  20.813  25.237  0.00  0.00     0.161 C 
BRANCH  16  17
ATOM     17  C   UNL d   1     -31.675  21.645  25.819  0.00  0.00     0.184 C 
BRANCH  17  18
ATOM     18  O   UNL d   1     -32.789  20.795  26.100  0.00  0.00    -0.399 OA
ATOM     19  H   UNL d   1     -32.645  20.189  26.841  0.00  0.00     0.209 HD
ENDBRANCH  17  18
ENDBRANCH  16  17
ENDBRANCH  11  16
ENDBRANCH   1   8
BRANCH   3  20
ATOM     20  O   UNL d   1     -23.667  22.979  21.587  0.00  0.00    -0.336 OA
BRANCH  20  21
ATOM     21  C   UNL d   1     -23.817  23.474  20.255  0.00  0.00     0.232 C 
ATOM     22  C   UNL d   1     -22.453  23.911  19.718  0.00  0.00     0.049 C 
BRANCH  21  23
ATOM     23  C   UNL d   1     -24.389  22.371  19.362  0.00  0.00     0.413 C 
ATOM     24  F   UNL d   1     -24.530  22.855  18.057  0.00  0.00    -0.168 F 
ATOM     25  F   UNL d   1     -23.521  21.274  19.362  0.00  0.00    -0.168 F 
ATOM     26  F   UNL d   1     -25.639  21.977  19.851  0.00  0.00    -0.168 F 
ENDBRANCH  21  23
ENDBRANCH  20  21
ENDBRANCH   3  20
BRANCH   4  27
ATOM     27  C   UNL d   1     -22.817  25.088  23.261  0.00  0.00     0.259 C 
ATOM     28  O   UNL d   1     -22.654  26.106  22.616  0.00  0.00    -0.267 OA
ATOM     29  N   UNL d   1     -21.769  24.506  23.877  0.00  0.00    -0.318 N 
ATOM     30  H   UNL d   1     -21.907  23.722  24.431  0.00  0.00     0.169 HD
BRANCH  29  31
ATOM     31  C   UNL d   1     -20.480  25.033  23.715  0.00  0.00     0.113 A 
ATOM     32  C   UNL d   1     -20.007  25.998  24.596  0.00  0.00     0.146 A 
ATOM     33  C   UNL d   1     -18.734  26.516  24.434  0.00  0.00     0.045 A 
ATOM     34  F   UNL d   1     -20.788  26.429  25.610  0.00  0.00    -0.204 F 
ATOM     35  C   UNL d   1     -17.933  26.074  23.397  0.00  0.00     0.006 A 
ATOM     36  C   UNL d   1     -18.401  25.114  22.519  0.00  0.00     0.045 A 
ATOM     37  C   UNL d   1     -19.670  24.587  22.677  0.00  0.00     0.146 A 
ATOM     38  F   UNL d   1     -20.124  23.645  21.822  0.00  0.00    -0.204 F 
ENDBRANCH  29  31
ENDBRANCH   4  27
TORSDOF 10
ENDMDL
