MODEL 1
REMARK VINA RESULT:     -11.6      0.000      0.000
REMARK  5 active torsions:
REMARK  status: ('A' for Active; 'I' for Inactive)
REMARK    1  A    between atoms: O_2  and  C_3 
REMARK    2  A    between atoms: C_8  and  C_9 
REMARK       I    between atoms: C_9  and  N_11 
REMARK    3  A    between atoms: N_11  and  C_12 
REMARK    4  A    between atoms: C_15  and  C_16 
REMARK    5  A    between atoms: C_26  and  O_27 
ROOT
ATOM      1  C   UNL d   1     -25.518  22.598  22.395  0.00  0.00     0.275 C 
ATOM      2  O   UNL d   1     -25.836  21.508  21.961  0.00  0.00    -0.266 OA
ATOM      3  N   UNL d   1     -26.415  23.341  23.072  0.00  0.00    -0.322 N 
ATOM      4  H   UNL d   1     -26.182  24.237  23.361  0.00  0.00     0.169 HD
ENDROOT
BRANCH   1   5
ATOM      5  C   UNL d   1     -24.145  23.110  22.177  0.00  0.00     0.134 A 
ATOM      6  N   UNL d   1     -23.374  23.352  23.221  0.00  0.00    -0.242 NA
ATOM      7  C   UNL d   1     -22.131  23.813  23.081  0.00  0.00     0.070 A 
ATOM      8  C   UNL d   1     -21.325  24.065  24.208  0.00  0.00     0.035 A 
ATOM      9  C   UNL d   1     -21.605  24.054  21.786  0.00  0.00     0.029 A 
ATOM     10  C   UNL d   1     -20.060  24.535  24.047  0.00  0.00     0.039 A 
ATOM     11  C   UNL d   1     -19.538  24.775  22.771  0.00  0.00     0.069 A 
ATOM     12  C   UNL d   1     -20.298  24.539  21.647  0.00  0.00     0.053 A 
ATOM     13  C   UNL d   1     -22.416  23.801  20.656  0.00  0.00     0.086 A 
ATOM     14  C   UNL d   1     -23.695  23.324  20.868  0.00  0.00     0.006 A 
ATOM     15  C   UNL d   1     -24.601  23.038  19.699  0.00  0.00     0.054 C 
BRANCH  11  16
ATOM     16  O   UNL d   1     -18.269  25.245  22.640  0.00  0.00    -0.356 OA
ATOM     17  C   UNL d   1     -17.812  26.163  23.635  0.00  0.00     0.210 C 
ENDBRANCH  11  16
BRANCH  13  18
ATOM     18  O   UNL d   1     -21.952  24.019  19.401  0.00  0.00    -0.359 OA
ATOM     19  H   UNL d   1     -21.943  23.230  18.842  0.00  0.00     0.217 HD
ENDBRANCH  13  18
ENDBRANCH   1   5
BRANCH   3  20
ATOM     20  C   UNL d   1     -27.679  22.821  23.360  0.00  0.00     0.035 A 
ATOM     21  C   UNL d   1     -27.920  22.223  24.592  0.00  0.00     0.030 A 
ATOM     22  C   UNL d   1     -29.167  21.709  24.878  0.00  0.00     0.014 A 
ATOM     23  C   UNL d   1     -30.187  21.790  23.931  0.00  0.00    -0.026 A 
ATOM     24  C   UNL d   1     -29.943  22.390  22.696  0.00  0.00     0.014 A 
ATOM     25  C   UNL d   1     -28.697  22.908  22.416  0.00  0.00     0.030 A 
BRANCH  23  26
ATOM     26  C   UNL d   1     -31.530  21.239  24.236  0.00  0.00    -0.026 A 
ATOM     27  C   UNL d   1     -31.741  20.518  25.410  0.00  0.00     0.012 A 
ATOM     28  C   UNL d   1     -32.992  20.008  25.689  0.00  0.00     0.001 A 
ATOM     29  C   UNL d   1     -34.037  20.211  24.805  0.00  0.00     0.000 A 
ATOM     30  C   UNL d   1     -33.833  20.925  23.637  0.00  0.00     0.001 A 
ATOM     31  C   UNL d   1     -32.587  21.444  23.352  0.00  0.00     0.012 A 
ENDBRANCH  23  26
ENDBRANCH   3  20
TORSDOF 5
ENDMDL
