MODEL 1
REMARK VINA RESULT:     -11.7      0.000      0.000
REMARK  6 active torsions:
REMARK  status: ('A' for Active; 'I' for Inactive)
REMARK    1  A    between atoms: C_2  and  O_3 
REMARK    2  A    between atoms: C_2  and  C_4 
REMARK    3  A    between atoms: C_6  and  C_7 
REMARK    4  A    between atoms: C_12  and  N_13 
REMARK    5  A    between atoms: N_13  and  C_14 
REMARK    6  A    between atoms: C_18  and  C_19 
ROOT
ATOM      1  C   UNL d   1     -26.852  22.870  23.695  0.00  0.00     0.112 A 
ATOM      2  C   UNL d   1     -26.284  22.034  22.739  0.00  0.00     0.146 A 
ATOM      3  F   UNL d   1     -26.899  20.879  22.402  0.00  0.00    -0.204 F 
ATOM      4  C   UNL d   1     -25.095  22.387  22.131  0.00  0.00     0.057 A 
ATOM      5  C   UNL d   1     -24.459  23.576  22.483  0.00  0.00    -0.018 A 
ATOM      6  C   UNL d   1     -25.026  24.410  23.446  0.00  0.00     0.057 A 
ATOM      7  C   UNL d   1     -26.218  24.057  24.048  0.00  0.00     0.146 A 
ATOM      8  F   UNL d   1     -26.768  24.865  24.980  0.00  0.00    -0.204 F 
ENDROOT
BRANCH   1   9
ATOM      9  N   UNL d   1     -28.059  22.514  24.307  0.00  0.00    -0.335 N 
ATOM     10  H   UNL d   1     -28.092  22.363  25.264  0.00  0.00     0.168 HD
BRANCH   9  11
ATOM     11  C   UNL d   1     -29.206  22.378  23.546  0.00  0.00     0.144 A 
ATOM     12  C   UNL d   1     -30.385  21.892  24.137  0.00  0.00     0.084 A 
ATOM     13  C   UNL d   1     -31.533  21.763  23.346  0.00  0.00     0.031 A 
ATOM     14  C   UNL d   1     -31.455  22.120  22.012  0.00  0.00    -0.035 A 
ATOM     15  C   UNL d   1     -30.258  22.591  21.501  0.00  0.00     0.126 A 
ATOM     16  N   UNL d   1     -29.186  22.701  22.261  0.00  0.00    -0.242 NA
BRANCH  12  17
ATOM     17  C   UNL d   1     -30.412  21.524  25.563  0.00  0.00     0.180 C 
ATOM     18  O   UNL d   1     -31.348  21.865  26.261  0.00  0.00    -0.646 OA
BRANCH  17  19
ATOM     19  O   UNL d   1     -29.400  20.810  26.095  0.00  0.00    -0.773 OA
ATOM     20  H   UNL d   1     -28.538  20.881  25.665  0.00  0.00     0.167 HD
ENDBRANCH  17  19
ENDBRANCH  12  17
BRANCH  14  21
ATOM     21  C   UNL d   1     -32.665  21.997  21.121  0.00  0.00     0.020 A 
ATOM     22  C   UNL d   1     -33.617  20.829  21.381  0.00  0.00     0.010 A 
ATOM     23  C   UNL d   1     -34.034  22.254  21.752  0.00  0.00     0.010 A 
ENDBRANCH  14  21
ENDBRANCH   9  11
ENDBRANCH   1   9
BRANCH   5  24
ATOM     24  C   UNL d   1     -23.180  23.954  21.836  0.00  0.00    -0.004 A 
ATOM     25  C   UNL d   1     -21.973  23.773  22.512  0.00  0.00     0.045 A 
ATOM     26  C   UNL d   1     -20.784  24.126  21.903  0.00  0.00     0.024 A 
ATOM     27 CL   UNL d   1     -21.964  23.107  24.115  0.00  0.00    -0.083 Cl
ATOM     28  C   UNL d   1     -20.790  24.657  20.625  0.00  0.00     0.002 A 
ATOM     29  C   UNL d   1     -21.983  24.838  19.951  0.00  0.00     0.001 A 
ATOM     30  C   UNL d   1     -23.177  24.484  20.547  0.00  0.00     0.014 A 
ENDBRANCH   5  24
TORSDOF 6
ENDMDL
