MODEL 1
REMARK VINA RESULT:      -8.7      0.000      0.000
REMARK  6 active torsions:
REMARK  status: ('A' for Active; 'I' for Inactive)
REMARK    1  A    between atoms: C_2  and  O_3 
REMARK    2  A    between atoms: O_3  and  C_4 
REMARK    3  A    between atoms: C_4  and  C_6 
REMARK    4  A    between atoms: C_8  and  N_9 
REMARK    5  A    between atoms: N_9  and  C_10 
REMARK    6  A    between atoms: C_19  and  C_20 
ROOT
ATOM      1  C   UNL d   1     -30.394  22.238  22.647  0.00  0.00     0.108 A 
ATOM      2  S   UNL d   1     -28.684  22.543  22.349  0.00  0.00    -0.044 SA
ATOM      3  C   UNL d   1     -28.339  22.290  24.004  0.00  0.00     0.172 A 
ATOM      4  N   UNL d   1     -29.428  22.011  24.661  0.00  0.00    -0.227 NA
ATOM      5  C   UNL d   1     -30.546  21.972  23.981  0.00  0.00     0.065 A 
ENDROOT
BRANCH   3   6
ATOM      6  N   UNL d   1     -27.082  22.372  24.567  0.00  0.00    -0.335 N 
ATOM      7  H   UNL d   1     -26.789  21.699  25.201  0.00  0.00     0.168 HD
BRANCH   6   8
ATOM      8  C   UNL d   1     -26.230  23.425  24.222  0.00  0.00     0.035 A 
ATOM      9  C   UNL d   1     -25.125  23.190  23.414  0.00  0.00     0.053 A 
ATOM     10  C   UNL d   1     -24.288  24.234  23.070  0.00  0.00     0.042 A 
ATOM     11  C   UNL d   1     -24.543  25.511  23.540  0.00  0.00    -0.040 A 
ATOM     12 CL   UNL d   1     -22.910  23.943  22.054  0.00  0.00    -0.084 Cl
ATOM     13  C   UNL d   1     -25.639  25.747  24.349  0.00  0.00     0.011 A 
ATOM     14  C   UNL d   1     -23.625  26.646  23.168  0.00  0.00     0.050 C 
ATOM     15  C   UNL d   1     -26.483  24.708  24.692  0.00  0.00     0.030 A 
ENDBRANCH   6   8
ENDBRANCH   3   6
BRANCH   1  16
ATOM     16  C   UNL d   1     -31.428  22.264  21.678  0.00  0.00     0.302 C 
ATOM     17  O   UNL d   1     -31.154  22.210  20.494  0.00  0.00    -0.259 OA
BRANCH  16  18
ATOM     18  O   UNL d   1     -32.718  22.347  22.068  0.00  0.00    -0.317 OA
BRANCH  18  19
ATOM     19  C   UNL d   1     -33.696  21.766  21.205  0.00  0.00     0.174 C 
ATOM     20  C   UNL d   1     -34.000  20.340  21.665  0.00  0.00     0.034 C 
ENDBRANCH  18  19
ENDBRANCH  16  18
ENDBRANCH   1  16
BRANCH   5  21
ATOM     21  C   UNL d   1     -31.880  21.667  24.612  0.00  0.00     0.039 A 
ATOM     22  C   UNL d   1     -32.227  20.197  24.852  0.00  0.00     0.011 A 
ATOM     23  C   UNL d   1     -31.877  21.103  26.033  0.00  0.00     0.011 A 
ENDBRANCH   5  21
TORSDOF 6
ENDMDL
