MODEL 1
REMARK VINA RESULT:     -13.0      0.000      0.000
REMARK  5 active torsions:
REMARK  status: ('A' for Active; 'I' for Inactive)
REMARK    1  A    between atoms: O_2  and  C_3 
REMARK    2  A    between atoms: C_3  and  C_5 
REMARK    3  A    between atoms: C_5  and  C_6 
REMARK    4  A    between atoms: C_10  and  C_11 
REMARK    5  A    between atoms: C_15  and  N_16 
ROOT
ATOM      1  C   UNL d   1     -24.573  23.438  22.497  0.00  0.00     0.051 A 
ATOM      2  C   UNL d   1     -25.133  22.180  22.266  0.00  0.00     0.132 A 
ATOM      3  F   UNL d   1     -24.579  21.349  21.357  0.00  0.00    -0.205 F 
ATOM      4  C   UNL d   1     -26.253  21.785  22.972  0.00  0.00     0.075 A 
ATOM      5  C   UNL d   1     -26.826  22.642  23.904  0.00  0.00     0.066 A 
ATOM      6  C   UNL d   1     -26.274  23.897  24.132  0.00  0.00     0.075 A 
ATOM      7  C   UNL d   1     -25.152  24.296  23.432  0.00  0.00     0.132 A 
ATOM      8  F   UNL d   1     -24.616  25.516  23.655  0.00  0.00    -0.205 F 
ENDROOT
BRANCH   5   9
ATOM      9  N   UNL d   1     -27.963  22.241  24.614  0.00  0.00    -0.209 N 
ATOM     10  C   UNL d   1     -29.216  22.095  24.100  0.00  0.00     0.146 A 
ATOM     11  C   UNL d   1     -30.010  21.682  25.164  0.00  0.00     0.164 A 
ATOM     12  C   UNL d   1     -29.795  22.266  22.761  0.00  0.00     0.214 A 
ATOM     13  N   UNL d   1     -29.198  21.618  26.226  0.00  0.00    -0.125 NA
ATOM     14  C   UNL d   1     -31.448  21.422  24.962  0.00  0.00     0.216 A 
ATOM     15  N   UNL d   1     -28.007  21.952  25.868  0.00  0.00    -0.059 NA
ATOM     16  C   UNL d   1     -32.043  21.596  23.619  0.00  0.00     0.031 A 
ATOM     17  O   UNL d   1     -32.140  21.065  25.895  0.00  0.00    -0.285 OA
ATOM     18  C   UNL d   1     -31.236  22.007  22.543  0.00  0.00     0.031 A 
ATOM     19  C   UNL d   1     -33.397  21.354  23.411  0.00  0.00     0.016 A 
ATOM     20  C   UNL d   1     -31.798  22.171  21.281  0.00  0.00     0.016 A 
ATOM     21  C   UNL d   1     -33.148  21.927  21.092  0.00  0.00     0.001 A 
ATOM     22  C   UNL d   1     -33.942  21.522  22.149  0.00  0.00     0.001 A 
ATOM     23  O   UNL d   1     -29.092  22.622  21.834  0.00  0.00    -0.285 OA
ENDBRANCH   5   9
BRANCH   1  24
ATOM     24  C   UNL d   1     -23.368  23.863  21.744  0.00  0.00    -0.019 A 
ATOM     25  C   UNL d   1     -23.488  24.315  20.431  0.00  0.00     0.012 A 
ATOM     26  C   UNL d   1     -22.364  24.711  19.734  0.00  0.00     0.001 A 
ATOM     27  C   UNL d   1     -21.120  24.664  20.339  0.00  0.00     0.007 A 
ATOM     28  C   UNL d   1     -20.995  24.212  21.641  0.00  0.00    -0.048 A 
ATOM     29  C   UNL d   1     -22.112  23.814  22.347  0.00  0.00     0.020 A 
BRANCH  28  30
ATOM     30  C   UNL d   1     -19.637  24.158  22.291  0.00  0.00     0.149 C 
BRANCH  30  31
ATOM     31  C   UNL d   1     -19.647  24.995  23.544  0.00  0.00     0.262 C 
ATOM     32  O   UNL d   1     -19.200  24.546  24.573  0.00  0.00    -0.265 OA
BRANCH  31  33
ATOM     33  O   UNL d   1     -20.146  26.241  23.516  0.00  0.00    -0.326 OA
ATOM     34  C   UNL d   1     -21.015  26.628  24.613  0.00  0.00     0.213 C 
ENDBRANCH  31  33
ENDBRANCH  30  31
ENDBRANCH  28  30
ENDBRANCH   1  24
TORSDOF 5
ENDMDL
