MODEL 1
REMARK VINA RESULT:     -10.6      0.000      0.000
REMARK  7 active torsions:
REMARK  status: ('A' for Active; 'I' for Inactive)
REMARK    1  A    between atoms: C_3  and  N_4 
REMARK       I    between atoms: N_4  and  C_5 
REMARK    2  A    between atoms: C_5  and  C_7 
REMARK    3  A    between atoms: C_11  and  N_12 
REMARK    4  A    between atoms: C_23  and  O_24 
REMARK    5  A    between atoms: O_24  and  C_25 
REMARK    6  A    between atoms: C_25  and  C_27 
REMARK    7  A    between atoms: C_34  and  C_35 
REMARK       I    between atoms: C_35  and  N_36 
ROOT
ATOM      1  C   UNL d   1     -24.273  24.392  23.463  0.00  0.00     0.068 A 
ATOM      2  C   UNL d   1     -25.142  24.901  24.434  0.00  0.00     0.064 A 
ATOM      3  C   UNL d   1     -26.403  24.368  24.575  0.00  0.00     0.146 A 
ATOM      4  F   UNL d   1     -27.242  24.861  25.513  0.00  0.00    -0.204 F 
ATOM      5  C   UNL d   1     -26.818  23.321  23.753  0.00  0.00     0.104 A 
ATOM      6  C   UNL d   1     -25.960  22.806  22.791  0.00  0.00     0.073 A 
ATOM      7  C   UNL d   1     -24.692  23.339  22.637  0.00  0.00     0.087 A 
ENDROOT
BRANCH   1   8
ATOM      8  C   UNL d   1     -22.923  24.959  23.310  0.00  0.00     0.259 C 
ATOM      9  N   UNL d   1     -21.862  24.336  23.863  0.00  0.00    -0.322 N 
ATOM     10  H   UNL d   1     -21.997  23.555  24.422  0.00  0.00     0.169 HD
ATOM     11  O   UNL d   1     -22.764  25.992  22.686  0.00  0.00    -0.267 OA
BRANCH   9  12
ATOM     12  C   UNL d   1     -20.569  24.815  23.627  0.00  0.00     0.042 A 
ATOM     13  C   UNL d   1     -19.936  25.598  24.580  0.00  0.00    -0.019 A 
ATOM     14  C   UNL d   1     -20.640  25.934  25.871  0.00  0.00     0.052 C 
ATOM     15  C   UNL d   1     -18.646  26.070  24.343  0.00  0.00     0.040 A 
ATOM     16  C   UNL d   1     -18.003  25.759  23.143  0.00  0.00     0.018 A 
ATOM     17  C   UNL d   1     -18.644  24.982  22.199  0.00  0.00     0.003 A 
ATOM     18  C   UNL d   1     -19.921  24.512  22.436  0.00  0.00     0.030 A 
BRANCH  15  19
ATOM     19  C   UNL d   1     -17.962  26.900  25.358  0.00  0.00     0.249 C 
ATOM     20  N   UNL d   1     -17.142  26.322  26.259  0.00  0.00    -0.366 N 
ATOM     21  H   UNL d   1     -17.001  25.363  26.241  0.00  0.00     0.159 HD
ATOM     22  H   UNL d   1     -16.692  26.866  26.924  0.00  0.00     0.159 HD
ATOM     23  O   UNL d   1     -18.138  28.102  25.380  0.00  0.00    -0.268 OA
ENDBRANCH  15  19
ENDBRANCH   9  12
ENDBRANCH   1   8
BRANCH   7  24
ATOM     24  O   UNL d   1     -23.854  22.839  21.693  0.00  0.00    -0.336 OA
BRANCH  24  25
ATOM     25  C   UNL d   1     -23.947  23.398  20.382  0.00  0.00     0.232 C 
ATOM     26  C   UNL d   1     -22.558  23.832  19.912  0.00  0.00     0.049 C 
BRANCH  25  27
ATOM     27  C   UNL d   1     -24.506  22.348  19.419  0.00  0.00     0.413 C 
ATOM     28  F   UNL d   1     -24.582  22.890  18.131  0.00  0.00    -0.168 F 
ATOM     29  F   UNL d   1     -23.661  21.232  19.404  0.00  0.00    -0.168 F 
ATOM     30  F   UNL d   1     -25.783  21.962  19.839  0.00  0.00    -0.168 F 
ENDBRANCH  25  27
ENDBRANCH  24  25
ENDBRANCH   7  24
BRANCH   5  31
ATOM     31  N   UNL d   1     -28.099  22.784  23.902  0.00  0.00    -0.178 N 
ATOM     32  C   UNL d   1     -28.530  22.013  24.924  0.00  0.00     0.351 A 
ATOM     33  N   UNL d   1     -29.824  21.737  24.699  0.00  0.00    -0.284 N 
ATOM     34  O   UNL d   1     -27.867  21.638  25.874  0.00  0.00    -0.244 OA
ATOM     35  C   UNL d   1     -30.189  22.311  23.498  0.00  0.00     0.131 A 
ATOM     36  C   UNL d   1     -30.738  20.978  25.560  0.00  0.00     0.135 C 
ATOM     37  N   UNL d   1     -29.175  22.944  23.016  0.00  0.00    -0.149 NA
ATOM     38  C   UNL d   1     -31.567  22.182  22.890  0.00  0.00     0.081 C 
ATOM     39  C   UNL d   1     -32.535  21.742  23.997  0.00  0.00     0.009 C 
ATOM     40  C   UNL d   1     -31.942  20.530  24.724  0.00  0.00     0.021 C 
ENDBRANCH   5  31
TORSDOF 7
ENDMDL
