MODEL 1
REMARK VINA RESULT:      -9.9      0.000      0.000
REMARK  8 active torsions:
REMARK  status: ('A' for Active; 'I' for Inactive)
REMARK    1  A    between atoms: C_2  and  O_3 
REMARK    2  A    between atoms: C_4  and  C_7 
REMARK       I    between atoms: C_7  and  N_9 
REMARK    3  A    between atoms: N_9  and  C_10 
REMARK    4  A    between atoms: C_12  and  O_13 
REMARK    5  A    between atoms: O_13  and  C_14 
REMARK    6  A    between atoms: C_14  and  C_16 
REMARK    7  A    between atoms: C_20  and  C_21 
REMARK       I    between atoms: C_21  and  N_23 
REMARK    8  A    between atoms: N_23  and  C_24 
ROOT
ATOM      1  C   UNL d   1     -31.491  21.152  24.723  0.00  0.00     0.077 C 
ATOM      2  C   UNL d   1     -30.062  21.612  24.591  0.00  0.00     0.065 C 
ATOM      3  C   UNL d   1     -29.621  22.137  23.413  0.00  0.00     0.141 C 
ATOM      4  C   UNL d   1     -30.515  22.252  22.301  0.00  0.00     0.107 C 
ATOM      5  N   UNL d   1     -31.225  22.343  21.418  0.00  0.00    -0.191 NA
ENDROOT
BRANCH   3   6
ATOM      6  C   UNL d   1     -28.227  22.586  23.285  0.00  0.00     0.269 C 
ATOM      7  O   UNL d   1     -27.523  22.137  22.401  0.00  0.00    -0.266 OA
ATOM      8  N   UNL d   1     -27.730  23.496  24.147  0.00  0.00    -0.320 N 
ATOM      9  H   UNL d   1     -28.269  23.802  24.893  0.00  0.00     0.169 HD
BRANCH   8  10
ATOM     10  C   UNL d   1     -26.440  23.995  23.966  0.00  0.00     0.076 A 
ATOM     11  C   UNL d   1     -26.014  25.101  24.701  0.00  0.00     0.144 A 
ATOM     12  C   UNL d   1     -24.742  25.599  24.526  0.00  0.00     0.064 A 
ATOM     13  F   UNL d   1     -26.852  25.686  25.584  0.00  0.00    -0.204 F 
ATOM     14  C   UNL d   1     -23.875  24.995  23.611  0.00  0.00     0.068 A 
ATOM     15  C   UNL d   1     -24.305  23.881  22.874  0.00  0.00     0.087 A 
ATOM     16  C   UNL d   1     -25.587  23.392  23.052  0.00  0.00     0.070 A 
BRANCH  14  17
ATOM     17  C   UNL d   1     -22.513  25.525  23.422  0.00  0.00     0.259 C 
ATOM     18  O   UNL d   1     -22.327  26.470  22.680  0.00  0.00    -0.267 OA
ATOM     19  N   UNL d   1     -21.476  24.963  24.072  0.00  0.00    -0.320 N 
ATOM     20  H   UNL d   1     -21.611  24.161  24.601  0.00  0.00     0.169 HD
BRANCH  19  21
ATOM     21  C   UNL d   1     -20.202  25.537  23.985  0.00  0.00     0.070 A 
ATOM     22  C   UNL d   1     -19.806  26.495  24.909  0.00  0.00     0.039 A 
ATOM     23  C   UNL d   1     -18.547  27.060  24.821  0.00  0.00     0.021 A 
ATOM     24 BR   UNL d   1     -20.986  27.027  26.288  0.00  0.00    -0.049 Br
ATOM     25  C   UNL d   1     -17.684  26.671  23.814  0.00  0.00     0.003 A 
ATOM     26  C   UNL d   1     -18.074  25.718  22.891  0.00  0.00     0.021 A 
ATOM     27  C   UNL d   1     -19.330  25.145  22.978  0.00  0.00     0.039 A 
ATOM     28 BR   UNL d   1     -19.861  23.836  21.721  0.00  0.00    -0.049 Br
ENDBRANCH  19  21
ENDBRANCH  14  17
BRANCH  15  29
ATOM     29  O   UNL d   1     -23.469  23.290  21.983  0.00  0.00    -0.336 OA
BRANCH  29  30
ATOM     30  C   UNL d   1     -23.822  23.383  20.602  0.00  0.00     0.232 C 
ATOM     31  C   UNL d   1     -22.585  23.760  19.783  0.00  0.00     0.049 C 
BRANCH  30  32
ATOM     32  C   UNL d   1     -24.360  22.034  20.120  0.00  0.00     0.413 C 
ATOM     33  F   UNL d   1     -23.647  21.626  18.987  0.00  0.00    -0.168 F 
ATOM     34  F   UNL d   1     -24.209  21.082  21.135  0.00  0.00    -0.168 F 
ATOM     35  F   UNL d   1     -25.716  22.161  19.798  0.00  0.00    -0.168 F 
ENDBRANCH  30  32
ENDBRANCH  29  30
ENDBRANCH  15  29
ENDBRANCH   8  10
ENDBRANCH   3   6
BRANCH   2  36
ATOM     36  O   UNL d   1     -29.223  21.504  25.635  0.00  0.00    -0.364 OA
ATOM     37  H   UNL d   1     -28.338  21.160  25.454  0.00  0.00     0.217 HD
ENDBRANCH   2  36
TORSDOF 8
ENDMDL
