MODEL 1
REMARK VINA RESULT:     -10.7      0.000      0.000
REMARK  3 active torsions:
REMARK  status: ('A' for Active; 'I' for Inactive)
REMARK    1  A    between atoms: C_5  and  C_6 
REMARK       I    between atoms: C_6  and  N_8 
REMARK    2  A    between atoms: N_8  and  C_9 
REMARK    3  A    between atoms: N_17  and  C_18 
ROOT
ATOM      1  C   UNL d   1     -26.388  22.058  22.602  0.00  0.00     0.121 C 
ATOM      2  C   UNL d   1     -26.712  22.286  21.121  0.00  0.00     0.030 C 
ATOM      3  C   UNL d   1     -27.776  21.283  20.670  0.00  0.00     0.008 C 
ATOM      4  C   UNL d   1     -29.121  21.636  21.317  0.00  0.00     0.060 C 
ATOM      5  C   UNL d   1     -28.901  21.820  22.798  0.00  0.00     0.046 A 
ATOM      6  C   UNL d   1     -27.684  22.007  23.371  0.00  0.00     0.008 A 
ATOM      7  C   UNL d   1     -27.871  22.134  24.746  0.00  0.00     0.150 A 
ATOM      8  N   UNL d   1     -29.154  22.030  24.995  0.00  0.00    -0.179 NA
ATOM      9  N   UNL d   1     -29.823  21.833  23.778  0.00  0.00    -0.235 N 
ENDROOT
BRANCH   1  10
ATOM     10  N   UNL d   1     -25.561  23.161  23.102  0.00  0.00    -0.347 N 
ATOM     11  C   UNL d   1     -24.224  23.125  22.944  0.00  0.00     0.270 C 
ATOM     12  O   UNL d   1     -23.702  22.179  22.387  0.00  0.00    -0.266 OA
ATOM     13  H   UNL d   1     -25.978  23.916  23.546  0.00  0.00     0.163 HD
BRANCH  11  14
ATOM     14  C   UNL d   1     -23.389  24.240  23.449  0.00  0.00     0.124 A 
ATOM     15  C   UNL d   1     -23.880  25.543  23.412  0.00  0.00     0.038 A 
ATOM     16  C   UNL d   1     -23.088  26.575  23.892  0.00  0.00     0.011 A 
ATOM     17  C   UNL d   1     -21.828  26.269  24.382  0.00  0.00    -0.044 A 
ATOM     18  C   UNL d   1     -20.931  27.359  24.908  0.00  0.00     0.049 C 
ATOM     19  C   UNL d   1     -21.402  24.951  24.383  0.00  0.00     0.124 A 
ATOM     20  N   UNL d   1     -22.175  23.989  23.926  0.00  0.00    -0.255 NA
ENDBRANCH  11  14
ENDBRANCH   1  10
BRANCH   9  21
ATOM     21  C   UNL d   1     -31.207  21.676  23.613  0.00  0.00     0.097 A 
ATOM     22  C   UNL d   1     -31.909  20.786  24.417  0.00  0.00     0.145 A 
ATOM     23  C   UNL d   1     -33.276  20.640  24.255  0.00  0.00     0.045 A 
ATOM     24  F   UNL d   1     -31.259  20.069  25.360  0.00  0.00    -0.204 F 
ATOM     25  C   UNL d   1     -33.939  21.368  23.287  0.00  0.00     0.003 A 
ATOM     26  C   UNL d   1     -33.242  22.250  22.480  0.00  0.00     0.002 A 
ATOM     27  C   UNL d   1     -31.879  22.406  22.641  0.00  0.00     0.035 A 
ENDBRANCH   9  21
TORSDOF 3
ENDMDL
