MODEL 1
REMARK VINA RESULT:      -9.5      0.000      0.000
REMARK  7 active torsions:
REMARK  status: ('A' for Active; 'I' for Inactive)
REMARK    1  A    between atoms: C_2  and  C_3 
REMARK    2  A    between atoms: C_3  and  O_5 
REMARK    3  A    between atoms: O_5  and  C_6 
REMARK    4  A    between atoms: C_8  and  N_9 
REMARK       I    between atoms: N_9  and  C_10 
REMARK    5  A    between atoms: C_10  and  C_12 
REMARK    6  A    between atoms: C_15  and  O_17 
REMARK    7  A    between atoms: C_21  and  C_22 
ROOT
ATOM      1  C   UNL d   1     -30.256  21.864  24.223  0.00  0.00     0.141 C 
ATOM      2  C   UNL d   1     -30.866  21.477  25.459  0.00  0.00     0.107 C 
ATOM      3  N   UNL d   1     -31.352  21.170  26.439  0.00  0.00    -0.191 NA
ATOM      4  C   UNL d   1     -31.018  22.012  23.103  0.00  0.00     0.065 C 
ATOM      5  C   UNL d   1     -32.504  21.766  23.165  0.00  0.00     0.077 C 
ENDROOT
BRANCH   1   6
ATOM      6  C   UNL d   1     -28.807  22.104  24.163  0.00  0.00     0.269 C 
ATOM      7  N   UNL d   1     -28.313  23.050  23.340  0.00  0.00    -0.320 N 
ATOM      8  H   UNL d   1     -28.904  23.515  22.727  0.00  0.00     0.169 HD
ATOM      9  O   UNL d   1     -28.053  21.449  24.858  0.00  0.00    -0.266 OA
BRANCH   7  10
ATOM     10  C   UNL d   1     -26.949  23.360  23.369  0.00  0.00     0.076 A 
ATOM     11  C   UNL d   1     -26.098  22.831  22.409  0.00  0.00     0.070 A 
ATOM     12  C   UNL d   1     -24.748  23.137  22.437  0.00  0.00     0.082 A 
ATOM     13  C   UNL d   1     -24.245  23.980  23.433  0.00  0.00     0.011 A 
ATOM     14  C   UNL d   1     -25.105  24.509  24.394  0.00  0.00     0.059 A 
ATOM     15  C   UNL d   1     -26.449  24.200  24.362  0.00  0.00     0.144 A 
ATOM     16  F   UNL d   1     -27.282  24.713  25.293  0.00  0.00    -0.204 F 
BRANCH  12  17
ATOM     17  O   UNL d   1     -23.914  22.620  21.498  0.00  0.00    -0.345 OA
BRANCH  17  18
ATOM     18  C   UNL d   1     -23.846  23.304  20.244  0.00  0.00     0.124 C 
ATOM     19  C   UNL d   1     -24.473  22.433  19.153  0.00  0.00     0.040 C 
BRANCH  18  20
ATOM     20  C   UNL d   1     -22.383  23.584  19.895  0.00  0.00     0.027 C 
ATOM     21  C   UNL d   1     -22.131  25.092  19.924  0.00  0.00     0.007 C 
ENDBRANCH  18  20
ENDBRANCH  17  18
ENDBRANCH  12  17
BRANCH  13  22
ATOM     22  C   UNL d   1     -22.800  24.311  23.466  0.00  0.00    -0.017 A 
ATOM     23  C   UNL d   1     -22.384  25.637  23.349  0.00  0.00    -0.051 A 
ATOM     24  C   UNL d   1     -21.037  25.939  23.381  0.00  0.00     0.007 A 
ATOM     25  C   UNL d   1     -23.401  26.736  23.187  0.00  0.00     0.049 C 
ATOM     26  C   UNL d   1     -20.102  24.931  23.530  0.00  0.00     0.001 A 
ATOM     27  C   UNL d   1     -20.511  23.613  23.646  0.00  0.00     0.001 A 
ATOM     28  C   UNL d   1     -21.853  23.300  23.620  0.00  0.00     0.013 A 
ENDBRANCH  13  22
ENDBRANCH   7  10
ENDBRANCH   1   6
BRANCH   4  29
ATOM     29  O   UNL d   1     -30.445  22.375  21.943  0.00  0.00    -0.364 OA
ATOM     30  H   UNL d   1     -30.133  23.288  21.874  0.00  0.00     0.217 HD
ENDBRANCH   4  29
TORSDOF 7
ENDMDL
