MODEL 1
REMARK VINA RESULT:     -10.2      0.000      0.000
REMARK  9 active torsions:
REMARK  status: ('A' for Active; 'I' for Inactive)
REMARK    1  A    between atoms: C_2  and  O_3 
REMARK    2  A    between atoms: C_2  and  C_4 
REMARK    3  A    between atoms: C_9  and  C_10 
REMARK    4  A    between atoms: N_11  and  N_12 
REMARK    5  A    between atoms: N_12  and  C_13 
REMARK    6  A    between atoms: N_12  and  C_16 
REMARK    7  A    between atoms: C_13  and  C_14 
REMARK    8  A    between atoms: C_14  and  O_15 
REMARK    9  A    between atoms: C_18  and  C_19 
ROOT
ATOM      1  N   UNL d   1     -27.718  22.487  23.837  0.00  0.00    -0.245 N 
ENDROOT
BRANCH   1   2
ATOM      2  N   UNL d   1     -28.944  21.880  23.539  0.00  0.00    -0.182 NA
ATOM      3  C   UNL d   1     -30.044  22.572  23.599  0.00  0.00     0.151 C 
BRANCH   3   4
ATOM      4  C   UNL d   1     -31.315  21.970  23.171  0.00  0.00    -0.000 A 
ATOM      5  C   UNL d   1     -32.050  21.155  24.057  0.00  0.00     0.049 A 
ATOM      6  C   UNL d   1     -33.257  20.595  23.636  0.00  0.00     0.019 A 
ATOM      7  C   UNL d   1     -33.722  20.837  22.360  0.00  0.00     0.001 A 
ATOM      8  C   UNL d   1     -32.997  21.634  21.487  0.00  0.00     0.001 A 
ATOM      9  C   UNL d   1     -31.801  22.197  21.881  0.00  0.00     0.014 A 
BRANCH   5  10
ATOM     10  C   UNL d   1     -31.550  20.900  25.419  0.00  0.00     0.177 C 
ATOM     11  O   UNL d   1     -31.977  21.550  26.355  0.00  0.00    -0.646 OA
BRANCH  10  12
ATOM     12  O   UNL d   1     -30.620  19.948  25.630  0.00  0.00    -0.773 OA
ATOM     13  H   UNL d   1     -29.837  19.965  25.063  0.00  0.00     0.167 HD
ENDBRANCH  10  12
ENDBRANCH   5  10
ENDBRANCH   3   4
ENDBRANCH   1   2
BRANCH   1  14
ATOM     14  C   UNL d   1     -27.570  23.281  25.060  0.00  0.00     0.179 C 
BRANCH  14  15
ATOM     15  C   UNL d   1     -27.239  22.356  26.233  0.00  0.00     0.186 C 
BRANCH  15  16
ATOM     16  O   UNL d   1     -28.109  21.222  26.205  0.00  0.00    -0.399 OA
ATOM     17  H   UNL d   1     -27.806  20.481  26.747  0.00  0.00     0.209 HD
ENDBRANCH  15  16
ENDBRANCH  14  15
ENDBRANCH   1  14
BRANCH   1  18
ATOM     18  C   UNL d   1     -26.644  22.337  22.977  0.00  0.00     0.190 A 
ATOM     19  S   UNL d   1     -26.635  21.347  21.520  0.00  0.00    -0.060 SA
ATOM     20  C   UNL d   1     -24.966  21.815  21.209  0.00  0.00     0.086 A 
ATOM     21  C   UNL d   1     -24.570  22.641  22.194  0.00  0.00     0.078 A 
ATOM     22  N   UNL d   1     -25.483  22.901  23.119  0.00  0.00    -0.222 NA
BRANCH  21  23
ATOM     23  C   UNL d   1     -23.206  23.222  22.242  0.00  0.00     0.015 A 
ATOM     24  C   UNL d   1     -22.668  23.840  21.113  0.00  0.00     0.046 A 
ATOM     25  C   UNL d   1     -21.397  24.379  21.166  0.00  0.00     0.025 A 
ATOM     26 CL   UNL d   1     -23.592  23.931  19.647  0.00  0.00    -0.083 Cl
ATOM     27  C   UNL d   1     -20.659  24.307  22.334  0.00  0.00     0.002 A 
ATOM     28  C   UNL d   1     -21.189  23.695  23.456  0.00  0.00     0.001 A 
ATOM     29  C   UNL d   1     -22.460  23.158  23.418  0.00  0.00     0.015 A 
ENDBRANCH  21  23
ENDBRANCH   1  18
TORSDOF 9
ENDMDL
