MODEL 1
REMARK VINA RESULT:     -10.8      0.000      0.000
REMARK  6 active torsions:
REMARK  status: ('A' for Active; 'I' for Inactive)
REMARK    1  A    between atoms: C_9  and  N_10 
REMARK       I    between atoms: N_10  and  C_11 
REMARK    2  A    between atoms: C_11  and  C_13 
REMARK    3  A    between atoms: C_17  and  N_18 
REMARK    4  A    between atoms: C_30  and  O_31 
REMARK    5  A    between atoms: O_31  and  C_32 
REMARK    6  A    between atoms: C_32  and  C_34 
ROOT
ATOM      1  C   UNL d   1     -24.085  24.646  23.551  0.00  0.00     0.068 A 
ATOM      2  C   UNL d   1     -25.044  25.101  24.464  0.00  0.00     0.064 A 
ATOM      3  C   UNL d   1     -26.278  24.494  24.524  0.00  0.00     0.146 A 
ATOM      4  F   UNL d   1     -27.204  24.936  25.402  0.00  0.00    -0.204 F 
ATOM      5  C   UNL d   1     -26.572  23.420  23.683  0.00  0.00     0.104 A 
ATOM      6  C   UNL d   1     -25.626  22.960  22.779  0.00  0.00     0.073 A 
ATOM      7  C   UNL d   1     -24.383  23.566  22.708  0.00  0.00     0.087 A 
ENDROOT
BRANCH   1   8
ATOM      8  C   UNL d   1     -22.766  25.296  23.481  0.00  0.00     0.259 C 
ATOM      9  N   UNL d   1     -21.719  24.772  24.150  0.00  0.00    -0.321 N 
ATOM     10  H   UNL d   1     -21.822  23.939  24.635  0.00  0.00     0.169 HD
ATOM     11  O   UNL d   1     -22.619  26.307  22.819  0.00  0.00    -0.267 OA
BRANCH   9  12
ATOM     12  C   UNL d   1     -20.483  25.430  24.144  0.00  0.00     0.063 A 
ATOM     13  C   UNL d   1     -20.218  26.419  25.081  0.00  0.00    -0.031 A 
ATOM     14  C   UNL d   1     -21.260  26.785  26.106  0.00  0.00     0.050 C 
ATOM     15  C   UNL d   1     -18.996  27.064  25.077  0.00  0.00     0.051 A 
ATOM     16  C   UNL d   1     -18.038  26.728  24.136  0.00  0.00     0.118 A 
ATOM     17  F   UNL d   1     -16.843  27.360  24.134  0.00  0.00    -0.206 F 
ATOM     18  C   UNL d   1     -18.301  25.746  23.196  0.00  0.00     0.068 A 
ATOM     19  C   UNL d   1     -19.522  25.099  23.195  0.00  0.00     0.064 A 
ATOM     20 CL   UNL d   1     -19.853  23.868  22.018  0.00  0.00    -0.082 Cl
ENDBRANCH   9  12
ENDBRANCH   1   8
BRANCH   7  21
ATOM     21  O   UNL d   1     -23.457  23.117  21.823  0.00  0.00    -0.336 OA
BRANCH  21  22
ATOM     22  C   UNL d   1     -23.725  23.335  20.437  0.00  0.00     0.232 C 
ATOM     23  C   UNL d   1     -22.424  23.697  19.717  0.00  0.00     0.049 C 
BRANCH  22  24
ATOM     24  C   UNL d   1     -24.310  22.061  19.824  0.00  0.00     0.413 C 
ATOM     25  F   UNL d   1     -23.699  21.814  18.590  0.00  0.00    -0.168 F 
ATOM     26  F   UNL d   1     -24.078  20.981  20.684  0.00  0.00    -0.168 F 
ATOM     27  F   UNL d   1     -25.687  22.223  19.639  0.00  0.00    -0.168 F 
ENDBRANCH  22  24
ENDBRANCH  21  22
ENDBRANCH   7  21
BRANCH   5  28
ATOM     28  N   UNL d   1     -27.825  22.806  23.753  0.00  0.00    -0.178 N 
ATOM     29  C   UNL d   1     -28.286  22.040  24.767  0.00  0.00     0.351 A 
ATOM     30  N   UNL d   1     -29.524  21.655  24.446  0.00  0.00    -0.282 N 
ATOM     31  O   UNL d   1     -27.684  21.756  25.788  0.00  0.00    -0.244 OA
ATOM     32  C   UNL d   1     -29.836  22.181  23.199  0.00  0.00     0.155 A 
ATOM     33  C   UNL d   1     -30.471  20.822  25.203  0.00  0.00     0.137 C 
ATOM     34  N   UNL d   1     -28.836  22.867  22.779  0.00  0.00    -0.147 NA
ATOM     35  C   UNL d   1     -31.170  21.925  22.526  0.00  0.00     0.248 C 
ATOM     36  O   UNL d   1     -32.180  22.551  23.324  0.00  0.00    -0.384 OA
ATOM     37  C   UNL d   1     -32.648  21.817  24.437  0.00  0.00     0.169 C 
ATOM     38  C   UNL d   1     -31.666  21.705  25.581  0.00  0.00     0.046 C 
ENDBRANCH   5  28
TORSDOF 6
ENDMDL
