MODEL 1
REMARK VINA RESULT:     -10.6      0.000      0.000
REMARK  5 active torsions:
REMARK  status: ('A' for Active; 'I' for Inactive)
REMARK    1  A    between atoms: C_6  and  C_7 
REMARK    2  A    between atoms: C_7  and  O_9 
REMARK    3  A    between atoms: C_10  and  O_11 
REMARK    4  A    between atoms: C_12  and  C_13 
REMARK    5  A    between atoms: C_16  and  C_17 
ROOT
ATOM      1  C   UNL d   1     -33.679  21.825  20.966  0.00  0.00     0.049 C 
ATOM      2  C   UNL d   1     -32.642  21.775  22.059  0.00  0.00    -0.054 A 
ATOM      3  C   UNL d   1     -33.023  21.413  23.348  0.00  0.00     0.008 A 
ATOM      4  C   UNL d   1     -32.107  21.359  24.358  0.00  0.00     0.015 A 
ATOM      5  C   UNL d   1     -30.770  21.673  24.095  0.00  0.00     0.013 A 
ATOM      6  C   UNL d   1     -29.753  21.623  25.148  0.00  0.00     0.085 A 
ATOM      7  C   UNL d   1     -28.446  21.959  24.791  0.00  0.00     0.113 A 
ATOM      8  C   UNL d   1     -28.168  22.314  23.454  0.00  0.00     0.102 A 
ATOM      9  N   UNL d   1     -29.102  22.344  22.528  0.00  0.00    -0.244 NA
ATOM     10  C   UNL d   1     -30.377  22.043  22.786  0.00  0.00     0.075 A 
ATOM     11  C   UNL d   1     -31.349  22.086  21.770  0.00  0.00    -0.026 A 
ATOM     12  C   UNL d   1     -30.960  22.477  20.367  0.00  0.00     0.051 C 
ENDROOT
BRANCH   8  13
ATOM     13  C   UNL d   1     -26.777  22.663  23.079  0.00  0.00    -0.004 A 
ATOM     14  C   UNL d   1     -26.104  21.917  22.113  0.00  0.00     0.014 A 
ATOM     15  C   UNL d   1     -24.809  22.248  21.769  0.00  0.00     0.017 A 
ATOM     16  C   UNL d   1     -24.180  23.317  22.380  0.00  0.00     0.048 A 
ATOM     17  C   UNL d   1     -24.842  24.060  23.339  0.00  0.00     0.017 A 
ATOM     18  C   UNL d   1     -26.139  23.742  23.689  0.00  0.00     0.014 A 
BRANCH  16  19
ATOM     19  C   UNL d   1     -22.765  23.673  22.000  0.00  0.00     0.417 C 
ATOM     20  F   UNL d   1     -21.873  22.976  22.821  0.00  0.00    -0.166 F 
ATOM     21  F   UNL d   1     -22.539  23.325  20.664  0.00  0.00    -0.166 F 
ATOM     22  F   UNL d   1     -22.571  25.049  22.162  0.00  0.00    -0.166 F 
ENDBRANCH  16  19
ENDBRANCH   8  13
BRANCH   7  23
ATOM     23  O   UNL d   1     -27.456  21.938  25.715  0.00  0.00    -0.357 OA
ATOM     24  H   UNL d   1     -27.359  21.090  26.167  0.00  0.00     0.217 HD
ENDBRANCH   7  23
BRANCH   6  25
ATOM     25  C   UNL d   1     -30.096  21.241  26.529  0.00  0.00     0.180 C 
ATOM     26  O   UNL d   1     -29.766  21.953  27.456  0.00  0.00    -0.646 OA
BRANCH  25  27
ATOM     27  O   UNL d   1     -30.777  20.101  26.763  0.00  0.00    -0.773 OA
ATOM     28  H   UNL d   1     -31.410  20.111  27.493  0.00  0.00     0.167 HD
ENDBRANCH  25  27
ENDBRANCH   6  25
TORSDOF 5
ENDMDL
