MODEL 1
REMARK VINA RESULT:     -10.4      0.000      0.000
REMARK  7 active torsions:
REMARK  status: ('A' for Active; 'I' for Inactive)
REMARK    1  A    between atoms: C_2  and  O_3 
REMARK    2  A    between atoms: C_2  and  C_4 
REMARK    3  A    between atoms: C_9  and  C_10 
REMARK    4  A    between atoms: C_10  and  C_11 
REMARK    5  A    between atoms: C_11  and  C_12 
REMARK    6  A    between atoms: CA_13  and  C_14 
REMARK    7  A    between atoms: C_14  and  OXT_16 
ROOT
ATOM      1  C   UNL d   1     -27.960  21.391  23.386  0.00  0.00     0.043 C 
ENDROOT
BRANCH   1   2
ATOM      2  C   UNL d   1     -26.775  21.914  22.615  0.00  0.00    -0.057 A 
ATOM      3  C   UNL d   1     -25.976  22.863  23.176  0.00  0.00     0.019 A 
ATOM      4  C   UNL d   1     -24.870  23.353  22.462  0.00  0.00    -0.025 A 
ATOM      5  C   UNL d   1     -24.022  24.330  23.018  0.00  0.00     0.013 A 
ATOM      6  C   UNL d   1     -24.604  22.850  21.163  0.00  0.00    -0.025 A 
ATOM      7  C   UNL d   1     -22.963  24.793  22.308  0.00  0.00     0.019 A 
ATOM      8  C   UNL d   1     -22.689  24.302  21.019  0.00  0.00     0.038 A 
ATOM      9  C   UNL d   1     -23.501  23.337  20.446  0.00  0.00     0.030 A 
ATOM     10  C   UNL d   1     -25.453  21.871  20.616  0.00  0.00     0.013 A 
ATOM     11  C   UNL d   1     -26.514  21.419  21.339  0.00  0.00     0.008 A 
BRANCH   8  12
ATOM     12  C   UNL d   1     -21.525  24.818  20.270  0.00  0.00     0.176 C 
ATOM     13  O   UNL d   1     -21.693  25.427  19.233  0.00  0.00    -0.646 OA
BRANCH  12  14
ATOM     14  O   UNL d   1     -20.279  24.615  20.738  0.00  0.00    -0.773 OA
ATOM     15  H   UNL d   1     -20.005  23.697  20.877  0.00  0.00     0.167 HD
ENDBRANCH  12  14
ENDBRANCH   8  12
ENDBRANCH   1   2
BRANCH   1  16
ATOM     16  C   UNL d   1     -28.926  22.542  23.677  0.00  0.00     0.051 C 
BRANCH  16  17
ATOM     17  C   UNL d   1     -30.296  22.188  23.158  0.00  0.00     0.044 A 
ATOM     18  C   UNL d   1     -30.655  22.426  21.754  0.00  0.00     0.258 A 
ATOM     19  N   UNL d   1     -31.891  22.090  21.331  0.00  0.00    -0.275 N 
ATOM     20  O   UNL d   1     -29.848  22.913  20.984  0.00  0.00    -0.267 OA
ATOM     21  C   UNL d   1     -32.781  21.557  22.186  0.00  0.00     0.327 A 
ATOM     22  H   UNL d   1     -32.141  22.238  20.406  0.00  0.00     0.173 HD
ATOM     23  N   UNL d   1     -32.478  21.336  23.477  0.00  0.00    -0.302 N 
ATOM     24  O   UNL d   1     -33.890  21.268  21.782  0.00  0.00    -0.247 OA
ATOM     25  CA  UNL d   1     -31.233  21.647  23.981  0.00  0.00     0.122 A 
ATOM     26  H   UNL d   1     -33.147  20.951  24.064  0.00  0.00     0.171 HD
BRANCH  25  27
ATOM     27  C   UNL d   1     -30.920  21.395  25.407  0.00  0.00     0.194 C 
ATOM     28  O   UNL d   1     -31.299  22.173  26.258  0.00  0.00    -0.645 OA
BRANCH  27  29
ATOM     29  OXT UNL d   1     -30.215  20.303  25.759  0.00  0.00    -0.772 OA
ATOM     30  HXT UNL d   1     -30.174  19.581  25.116  0.00  0.00     0.167 HD
ENDBRANCH  27  29
ENDBRANCH  25  27
ENDBRANCH  16  17
ENDBRANCH   1  16
TORSDOF 7
ENDMDL
