MODEL 1
REMARK VINA RESULT:     -13.0      0.000      0.000
REMARK  4 active torsions:
REMARK  status: ('A' for Active; 'I' for Inactive)
REMARK    1  A    between atoms: C_2  and  O_3 
REMARK    2  A    between atoms: C_2  and  C_4 
REMARK    3  A    between atoms: C_11  and  C_12 
REMARK    4  A    between atoms: C_17  and  C_18 
ROOT
ATOM      1  C   UNL d   1     -26.850  22.637  23.216  0.00  0.00     0.093 A 
ATOM      2  C   UNL d   1     -26.212  23.747  23.782  0.00  0.00     0.173 A 
ATOM      3  F   UNL d   1     -26.824  24.453  24.758  0.00  0.00    -0.202 F 
ATOM      4  C   UNL d   1     -24.957  24.120  23.343  0.00  0.00     0.170 A 
ATOM      5  F   UNL d   1     -24.341  25.191  23.889  0.00  0.00    -0.202 F 
ATOM      6  C   UNL d   1     -24.325  23.390  22.335  0.00  0.00     0.061 A 
ATOM      7  C   UNL d   1     -24.962  22.286  21.765  0.00  0.00     0.170 A 
ATOM      8  F   UNL d   1     -24.350  21.585  20.786  0.00  0.00    -0.202 F 
ATOM      9  C   UNL d   1     -26.215  21.907  22.206  0.00  0.00     0.173 A 
ATOM     10  F   UNL d   1     -26.829  20.836  21.659  0.00  0.00    -0.202 F 
ENDROOT
BRANCH   1  11
ATOM     11  C   UNL d   1     -28.191  22.238  23.685  0.00  0.00     0.145 A 
ATOM     12  N   UNL d   1     -28.474  21.730  24.923  0.00  0.00    -0.338 N 
ATOM     13  C   UNL d   1     -29.835  21.487  24.959  0.00  0.00     0.064 A 
ATOM     14  H   UNL d   1     -27.839  21.569  25.639  0.00  0.00     0.167 HD
ATOM     15  C   UNL d   1     -30.694  20.984  25.924  0.00  0.00     0.032 A 
ATOM     16  C   UNL d   1     -30.335  21.871  23.702  0.00  0.00     0.102 A 
ATOM     17  C   UNL d   1     -32.045  20.858  25.654  0.00  0.00     0.003 A 
ATOM     18  C   UNL d   1     -32.556  21.229  24.426  0.00  0.00     0.021 A 
ATOM     19  C   UNL d   1     -31.715  21.738  23.438  0.00  0.00     0.068 A 
ATOM     20  N   UNL d   1     -29.296  22.321  22.977  0.00  0.00    -0.227 NA
BRANCH  19  21
ATOM     21  C   UNL d   1     -32.263  22.133  22.130  0.00  0.00     0.178 C 
ATOM     22  O   UNL d   1     -33.450  22.365  22.013  0.00  0.00    -0.646 OA
BRANCH  21  23
ATOM     23  O   UNL d   1     -31.447  22.236  21.060  0.00  0.00    -0.773 OA
ATOM     24  H   UNL d   1     -30.854  22.998  21.033  0.00  0.00     0.167 HD
ENDBRANCH  21  23
ENDBRANCH  19  21
ENDBRANCH   1  11
BRANCH   6  25
ATOM     25  C   UNL d   1     -22.977  23.792  21.864  0.00  0.00     0.019 A 
ATOM     26  C   UNL d   1     -21.846  23.466  22.614  0.00  0.00     0.127 A 
ATOM     27  C   UNL d   1     -20.593  23.845  22.170  0.00  0.00     0.043 A 
ATOM     28  F   UNL d   1     -21.976  22.783  23.773  0.00  0.00    -0.205 F 
ATOM     29  C   UNL d   1     -20.460  24.543  20.984  0.00  0.00     0.003 A 
ATOM     30  C   UNL d   1     -21.578  24.865  20.234  0.00  0.00     0.001 A 
ATOM     31  C   UNL d   1     -22.835  24.497  20.671  0.00  0.00     0.015 A 
ENDBRANCH   6  25
TORSDOF 4
ENDMDL
