MODEL 1
REMARK VINA RESULT:     -10.9      0.000      0.000
REMARK  6 active torsions:
REMARK  status: ('A' for Active; 'I' for Inactive)
REMARK    1  A    between atoms: C_2  and  O_3 
REMARK    2  A    between atoms: C_2  and  C_33 
REMARK    3  A    between atoms: O_3  and  C_4 
REMARK    4  A    between atoms: C_6  and  N_7 
REMARK    5  A    between atoms: C_20  and  C_21 
REMARK       I    between atoms: C_21  and  N_23 
REMARK    6  A    between atoms: N_23  and  C_24 
ROOT
ATOM      1  C   UNL d   1     -24.678  23.373  22.639  0.00  0.00     0.087 A 
ATOM      2  C   UNL d   1     -25.940  22.834  22.827  0.00  0.00     0.073 A 
ATOM      3  C   UNL d   1     -26.784  23.365  23.792  0.00  0.00     0.104 A 
ATOM      4  C   UNL d   1     -26.368  24.443  24.574  0.00  0.00     0.146 A 
ATOM      5  F   UNL d   1     -27.198  24.958  25.507  0.00  0.00    -0.204 F 
ATOM      6  C   UNL d   1     -25.116  24.985  24.394  0.00  0.00     0.064 A 
ATOM      7  C   UNL d   1     -24.258  24.456  23.423  0.00  0.00     0.068 A 
ENDROOT
BRANCH   7   8
ATOM      8  C   UNL d   1     -22.918  25.034  23.229  0.00  0.00     0.259 C 
ATOM      9  O   UNL d   1     -22.781  26.045  22.567  0.00  0.00    -0.267 OA
ATOM     10  N   UNL d   1     -21.840  24.442  23.784  0.00  0.00    -0.319 N 
ATOM     11  H   UNL d   1     -21.937  23.591  24.240  0.00  0.00     0.169 HD
BRANCH  10  12
ATOM     12  C   UNL d   1     -20.584  25.057  23.703  0.00  0.00     0.096 A 
ATOM     13  C   UNL d   1     -20.230  26.040  24.616  0.00  0.00     0.066 A 
ATOM     14  C   UNL d   1     -18.989  26.645  24.534  0.00  0.00     0.068 A 
ATOM     15 CL   UNL d   1     -21.347  26.513  25.859  0.00  0.00    -0.082 Cl
ATOM     16  C   UNL d   1     -18.099  26.269  23.544  0.00  0.00     0.121 A 
ATOM     17  C   UNL d   1     -18.448  25.288  22.631  0.00  0.00     0.087 A 
ATOM     18  F   UNL d   1     -16.887  26.862  23.466  0.00  0.00    -0.206 F 
ATOM     19  C   UNL d   1     -19.686  24.677  22.712  0.00  0.00     0.147 A 
ATOM     20  F   UNL d   1     -20.025  23.716  21.824  0.00  0.00    -0.204 F 
ENDBRANCH  10  12
ENDBRANCH   7   8
BRANCH   1  21
ATOM     21  O   UNL d   1     -23.851  22.855  21.696  0.00  0.00    -0.336 OA
BRANCH  21  22
ATOM     22  C   UNL d   1     -23.963  23.385  20.373  0.00  0.00     0.232 C 
ATOM     23  C   UNL d   1     -22.581  23.817  19.879  0.00  0.00     0.049 C 
BRANCH  22  24
ATOM     24  C   UNL d   1     -24.526  22.312  19.440  0.00  0.00     0.413 C 
ATOM     25  F   UNL d   1     -23.695  21.188  19.465  0.00  0.00    -0.168 F 
ATOM     26  F   UNL d   1     -25.810  21.953  19.862  0.00  0.00    -0.168 F 
ATOM     27  F   UNL d   1     -24.589  22.815  18.135  0.00  0.00    -0.168 F 
ENDBRANCH  22  24
ENDBRANCH  21  22
ENDBRANCH   1  21
BRANCH   3  28
ATOM     28  N   UNL d   1     -28.056  22.819  23.979  0.00  0.00    -0.178 N 
ATOM     29  C   UNL d   1     -28.448  22.038  25.010  0.00  0.00     0.351 A 
ATOM     30  N   UNL d   1     -29.745  21.756  24.825  0.00  0.00    -0.280 N 
ATOM     31  O   UNL d   1     -27.753  21.662  25.937  0.00  0.00    -0.244 OA
ATOM     32  C   UNL d   1     -30.152  22.334  23.637  0.00  0.00     0.155 A 
ATOM     33  C   UNL d   1     -30.650  20.988  25.690  0.00  0.00     0.161 C 
ATOM     34  N   UNL d   1     -29.161  22.974  23.126  0.00  0.00    -0.147 NA
ATOM     35  C   UNL d   1     -31.555  22.180  23.094  0.00  0.00     0.248 C 
ATOM     36  O   UNL d   1     -32.388  21.718  24.167  0.00  0.00    -0.382 OA
ATOM     37  C   UNL d   1     -31.867  20.574  24.850  0.00  0.00     0.188 C 
ENDBRANCH   3  28
TORSDOF 6
ENDMDL
