MODEL 1
REMARK VINA RESULT:      -9.7      0.000      0.000
REMARK  8 active torsions:
REMARK  status: ('A' for Active; 'I' for Inactive)
REMARK    1  A    between atoms: C_2  and  O_3 
REMARK    2  A    between atoms: C_4  and  C_7 
REMARK       I    between atoms: C_7  and  N_9 
REMARK    3  A    between atoms: N_9  and  C_10 
REMARK    4  A    between atoms: C_12  and  O_13 
REMARK    5  A    between atoms: O_13  and  C_14 
REMARK    6  A    between atoms: C_14  and  C_16 
REMARK    7  A    between atoms: C_20  and  C_21 
REMARK       I    between atoms: C_21  and  N_23 
REMARK    8  A    between atoms: N_23  and  C_24 
ROOT
ATOM      1  C   UNL d   1     -32.647  21.556  22.951  0.00  0.00     0.077 C 
ATOM      2  C   UNL d   1     -31.264  22.087  22.670  0.00  0.00     0.065 C 
ATOM      3  C   UNL d   1     -30.374  22.245  23.691  0.00  0.00     0.141 C 
ATOM      4  C   UNL d   1     -30.753  21.907  25.030  0.00  0.00     0.107 C 
ATOM      5  N   UNL d   1     -31.054  21.640  26.092  0.00  0.00    -0.191 NA
ENDROOT
BRANCH   3   6
ATOM      6  C   UNL d   1     -29.026  22.763  23.417  0.00  0.00     0.269 C 
ATOM      7  O   UNL d   1     -28.743  23.162  22.303  0.00  0.00    -0.266 OA
ATOM      8  N   UNL d   1     -28.104  22.796  24.400  0.00  0.00    -0.320 N 
ATOM      9  H   UNL d   1     -28.311  22.423  25.271  0.00  0.00     0.169 HD
BRANCH   8  10
ATOM     10  C   UNL d   1     -26.854  23.367  24.164  0.00  0.00     0.076 A 
ATOM     11  C   UNL d   1     -26.464  24.502  24.875  0.00  0.00     0.144 A 
ATOM     12  C   UNL d   1     -25.231  25.070  24.648  0.00  0.00     0.064 A 
ATOM     13  F   UNL d   1     -27.298  25.044  25.789  0.00  0.00    -0.204 F 
ATOM     14  C   UNL d   1     -24.367  24.510  23.701  0.00  0.00     0.068 A 
ATOM     15  C   UNL d   1     -24.764  23.372  22.983  0.00  0.00     0.087 A 
ATOM     16  C   UNL d   1     -26.002  22.805  23.223  0.00  0.00     0.070 A 
BRANCH  14  17
ATOM     17  C   UNL d   1     -23.047  25.116  23.455  0.00  0.00     0.259 C 
ATOM     18  O   UNL d   1     -22.939  26.047  22.680  0.00  0.00    -0.267 OA
ATOM     19  N   UNL d   1     -21.958  24.638  24.089  0.00  0.00    -0.319 N 
ATOM     20  H   UNL d   1     -22.053  23.955  24.771  0.00  0.00     0.169 HD
BRANCH  19  21
ATOM     21  C   UNL d   1     -20.688  25.132  23.769  0.00  0.00     0.091 A 
ATOM     22  C   UNL d   1     -20.165  26.213  24.466  0.00  0.00     0.040 A 
ATOM     23  C   UNL d   1     -18.908  26.695  24.152  0.00  0.00     0.021 A 
ATOM     24 BR   UNL d   1     -21.169  27.023  25.848  0.00  0.00    -0.049 Br
ATOM     25  C   UNL d   1     -18.175  26.108  23.137  0.00  0.00     0.005 A 
ATOM     26  C   UNL d   1     -18.693  25.034  22.437  0.00  0.00     0.045 A 
ATOM     27  C   UNL d   1     -19.948  24.544  22.749  0.00  0.00     0.144 A 
ATOM     28  F   UNL d   1     -20.454  23.496  22.064  0.00  0.00    -0.204 F 
ENDBRANCH  19  21
ENDBRANCH  14  17
BRANCH  15  29
ATOM     29  O   UNL d   1     -23.932  22.826  22.059  0.00  0.00    -0.336 OA
BRANCH  29  30
ATOM     30  C   UNL d   1     -24.170  23.164  20.692  0.00  0.00     0.232 C 
ATOM     31  C   UNL d   1     -22.859  23.610  20.042  0.00  0.00     0.049 C 
BRANCH  30  32
ATOM     32  C   UNL d   1     -24.718  21.943  19.952  0.00  0.00     0.413 C 
ATOM     33  F   UNL d   1     -26.116  21.992  19.942  0.00  0.00    -0.168 F 
ATOM     34  F   UNL d   1     -24.242  21.943  18.636  0.00  0.00    -0.168 F 
ATOM     35  F   UNL d   1     -24.297  20.776  20.600  0.00  0.00    -0.168 F 
ENDBRANCH  30  32
ENDBRANCH  29  30
ENDBRANCH  15  29
ENDBRANCH   8  10
ENDBRANCH   3   6
BRANCH   2  36
ATOM     36  O   UNL d   1     -30.909  22.404  21.414  0.00  0.00    -0.364 OA
ATOM     37  H   UNL d   1     -30.329  21.783  20.951  0.00  0.00     0.217 HD
ENDBRANCH   2  36
TORSDOF 8
ENDMDL
