MODEL 1
REMARK VINA RESULT:     -10.0      0.000      0.000
REMARK  7 active torsions:
REMARK  status: ('A' for Active; 'I' for Inactive)
REMARK    1  A    between atoms: C_2  and  C_3 
REMARK    2  A    between atoms: C_3  and  O_4 
REMARK    3  A    between atoms: C_5  and  C_8 
REMARK       I    between atoms: C_8  and  N_10 
REMARK    4  A    between atoms: N_10  and  C_11 
REMARK    5  A    between atoms: C_14  and  C_15 
REMARK    6  A    between atoms: C_21  and  C_22 
REMARK    7  A    between atoms: C_22  and  O_24 
ROOT
ATOM      1  C   UNL d   1     -32.290  21.775  22.695  0.00  0.00     0.069 C 
ATOM      2  C   UNL d   1     -31.369  21.913  23.691  0.00  0.00     0.141 C 
ATOM      3  C   UNL d   1     -31.715  21.569  25.038  0.00  0.00     0.107 C 
ATOM      4  N   UNL d   1     -31.989  21.296  26.106  0.00  0.00    -0.191 NA
ENDROOT
BRANCH   2   5
ATOM      5  C   UNL d   1     -30.023  22.416  23.384  0.00  0.00     0.269 C 
ATOM      6  O   UNL d   1     -29.858  23.185  22.456  0.00  0.00    -0.266 OA
ATOM      7  N   UNL d   1     -28.971  22.023  24.129  0.00  0.00    -0.322 N 
ATOM      8  H   UNL d   1     -29.110  21.467  24.910  0.00  0.00     0.169 HD
BRANCH   7   9
ATOM      9  C   UNL d   1     -27.678  22.420  23.775  0.00  0.00     0.036 A 
ATOM     10  C   UNL d   1     -27.064  21.863  22.663  0.00  0.00     0.048 A 
ATOM     11  C   UNL d   1     -25.775  22.258  22.311  0.00  0.00     0.052 A 
ATOM     12  C   UNL d   1     -25.105  23.221  23.088  0.00  0.00    -0.008 A 
ATOM     13  C   UNL d   1     -25.735  23.770  24.202  0.00  0.00     0.015 A 
ATOM     14  C   UNL d   1     -27.010  23.372  24.541  0.00  0.00     0.030 A 
BRANCH  11  15
ATOM     15  C   UNL d   1     -25.118  21.675  21.125  0.00  0.00     0.293 C 
ATOM     16  O   UNL d   1     -24.334  20.756  21.255  0.00  0.00    -0.259 OA
BRANCH  15  17
ATOM     17  O   UNL d   1     -25.388  22.162  19.898  0.00  0.00    -0.322 OA
ATOM     18  C   UNL d   1     -24.257  22.387  19.016  0.00  0.00     0.213 C 
ENDBRANCH  15  17
ENDBRANCH  11  15
BRANCH  12  19
ATOM     19  C   UNL d   1     -23.734  23.649  22.723  0.00  0.00    -0.007 A 
ATOM     20  C   UNL d   1     -23.533  24.632  21.755  0.00  0.00     0.128 A 
ATOM     21  N   UNL d   1     -22.315  25.017  21.433  0.00  0.00    -0.272 NA
ATOM     22  C   UNL d   1     -21.246  24.488  21.997  0.00  0.00     0.116 A 
ATOM     23  C   UNL d   1     -21.361  23.504  22.962  0.00  0.00     0.020 A 
ATOM     24  C   UNL d   1     -22.621  23.069  23.339  0.00  0.00     0.015 A 
ENDBRANCH  12  19
ENDBRANCH   7   9
ENDBRANCH   2   5
BRANCH   1  25
ATOM     25  C   UNL d   1     -33.670  21.261  23.011  0.00  0.00     0.061 C 
ATOM     26  C   UNL d   1     -34.106  20.269  21.932  0.00  0.00     0.012 C 
ENDBRANCH   1  25
BRANCH   1  27
ATOM     27  O   UNL d   1     -31.965  22.099  21.431  0.00  0.00    -0.363 OA
ATOM     28  H   UNL d   1     -31.274  22.765  21.312  0.00  0.00     0.217 HD
ENDBRANCH   1  27
TORSDOF 7
ENDMDL
