MODEL 1
REMARK VINA RESULT:     -13.2      0.000      0.000
REMARK  5 active torsions:
REMARK  status: ('A' for Active; 'I' for Inactive)
REMARK    1  A    between atoms: C_3  and  C_4 
REMARK       I    between atoms: C_4  and  N_6 
REMARK    2  A    between atoms: N_6  and  C_7 
REMARK    3  A    between atoms: C_11  and  C_12 
REMARK    4  A    between atoms: C_26  and  C_27 
REMARK    5  A    between atoms: C_33  and  O_34 
ROOT
ATOM      1  C   UNL d   1     -26.673  23.166  24.144  0.00  0.00     0.275 C 
ATOM      2  O   UNL d   1     -26.142  23.132  25.238  0.00  0.00    -0.266 OA
ATOM      3  N   UNL d   1     -25.998  23.648  23.082  0.00  0.00    -0.317 N 
ATOM      4  H   UNL d   1     -26.432  23.705  22.217  0.00  0.00     0.169 HD
ENDROOT
BRANCH   1   5
ATOM      5  C   UNL d   1     -28.062  22.675  23.979  0.00  0.00     0.134 A 
ATOM      6  C   UNL d   1     -28.714  22.089  25.072  0.00  0.00     0.006 A 
ATOM      7  C   UNL d   1     -28.008  21.963  26.396  0.00  0.00     0.054 C 
ATOM      8  C   UNL d   1     -30.009  21.630  24.926  0.00  0.00     0.086 A 
ATOM      9  C   UNL d   1     -30.628  21.773  23.663  0.00  0.00     0.027 A 
ATOM     10  C   UNL d   1     -29.903  22.376  22.605  0.00  0.00     0.070 A 
ATOM     11  C   UNL d   1     -31.939  21.330  23.441  0.00  0.00     0.032 A 
ATOM     12  N   UNL d   1     -28.654  22.801  22.807  0.00  0.00    -0.242 NA
ATOM     13  C   UNL d   1     -30.520  22.518  21.347  0.00  0.00     0.033 A 
ATOM     14  C   UNL d   1     -31.797  22.081  21.170  0.00  0.00     0.018 A 
ATOM     15  C   UNL d   1     -32.504  21.485  22.211  0.00  0.00     0.049 A 
BRANCH   8  16
ATOM     16  O   UNL d   1     -30.668  21.058  25.965  0.00  0.00    -0.359 OA
ATOM     17  H   UNL d   1     -30.100  20.545  26.556  0.00  0.00     0.217 HD
ENDBRANCH   8  16
BRANCH  15  18
ATOM     18  C   UNL d   1     -33.915  21.008  21.975  0.00  0.00     0.417 C 
ATOM     19  F   UNL d   1     -34.419  20.444  23.151  0.00  0.00    -0.166 F 
ATOM     20  F   UNL d   1     -34.715  22.093  21.598  0.00  0.00    -0.166 F 
ATOM     21  F   UNL d   1     -33.919  20.049  20.958  0.00  0.00    -0.166 F 
ENDBRANCH  15  18
ENDBRANCH   1   5
BRANCH   3  22
ATOM     22  C   UNL d   1     -24.670  24.065  23.228  0.00  0.00     0.113 A 
ATOM     23  C   UNL d   1     -23.630  23.178  22.966  0.00  0.00     0.147 A 
ATOM     24  C   UNL d   1     -22.320  23.589  23.109  0.00  0.00     0.057 A 
ATOM     25  F   UNL d   1     -23.903  21.915  22.573  0.00  0.00    -0.204 F 
ATOM     26  C   UNL d   1     -22.038  24.892  23.515  0.00  0.00    -0.020 A 
ATOM     27  C   UNL d   1     -23.081  25.779  23.777  0.00  0.00     0.057 A 
ATOM     28  C   UNL d   1     -24.391  25.368  23.629  0.00  0.00     0.147 A 
ATOM     29  F   UNL d   1     -25.401  26.229  23.877  0.00  0.00    -0.204 F 
BRANCH  26  30
ATOM     30  C   UNL d   1     -20.631  25.335  23.670  0.00  0.00    -0.023 A 
ATOM     31  C   UNL d   1     -19.675  24.966  22.726  0.00  0.00     0.054 A 
ATOM     32  C   UNL d   1     -18.366  25.386  22.872  0.00  0.00     0.117 A 
ATOM     33  C   UNL d   1     -18.003  26.162  23.961  0.00  0.00     0.042 A 
ATOM     34  F   UNL d   1     -17.437  25.033  21.956  0.00  0.00    -0.206 F 
ATOM     35  C   UNL d   1     -18.949  26.525  24.903  0.00  0.00     0.004 A 
ATOM     36  C   UNL d   1     -20.260  26.116  24.763  0.00  0.00     0.012 A 
ENDBRANCH  26  30
ENDBRANCH   3  22
TORSDOF 5
ENDMDL
