MODEL 1
REMARK VINA RESULT:      -8.6      0.000      0.000
REMARK  7 active torsions:
REMARK  status: ('A' for Active; 'I' for Inactive)
REMARK    1  A    between atoms: N_2  and  C_3 
REMARK    2  A    between atoms: N_2  and  C_10 
REMARK    3  A    between atoms: C_3  and  C_4 
REMARK    4  A    between atoms: C_13  and  N_14 
REMARK       I    between atoms: N_14  and  C_15 
REMARK    5  A    between atoms: C_15  and  C_17 
REMARK    6  A    between atoms: C_20  and  C_21 
REMARK    7  A    between atoms: C_21  and  O_23 
ROOT
ATOM      1  C   UNL d   1     -26.763  23.250  24.199  0.00  0.00     0.031 A 
ATOM      2  C   UNL d   1     -26.859  22.495  25.363  0.00  0.00     0.031 A 
ATOM      3  C   UNL d   1     -27.989  21.744  25.617  0.00  0.00     0.033 A 
ATOM      4  C   UNL d   1     -29.036  21.730  24.704  0.00  0.00     0.051 A 
ATOM      5  C   UNL d   1     -28.943  22.486  23.526  0.00  0.00     0.066 A 
ATOM      6  C   UNL d   1     -27.798  23.246  23.279  0.00  0.00     0.050 A 
ENDROOT
BRANCH   1   7
ATOM      7  N   UNL d   1     -25.615  24.012  23.953  0.00  0.00    -0.381 N 
ATOM      8  C   UNL d   1     -25.678  25.474  24.019  0.00  0.00     0.150 C 
BRANCH   7   9
ATOM      9  C   UNL d   1     -24.351  23.346  23.629  0.00  0.00     0.162 C 
BRANCH   9  10
ATOM     10  C   UNL d   1     -24.240  23.176  22.136  0.00  0.00    -0.023 A 
ATOM     11  C   UNL d   1     -23.513  24.076  21.381  0.00  0.00     0.124 A 
ATOM     12  N   UNL d   1     -23.407  23.931  20.075  0.00  0.00    -0.273 NA
ATOM     13  C   UNL d   1     -23.991  22.935  19.439  0.00  0.00     0.116 A 
ATOM     14  C   UNL d   1     -24.739  21.998  20.127  0.00  0.00     0.020 A 
ATOM     15  C   UNL d   1     -24.873  22.118  21.501  0.00  0.00     0.012 A 
ENDBRANCH   9  10
ENDBRANCH   7   9
ENDBRANCH   1   7
BRANCH   5  16
ATOM     16  C   UNL d   1     -30.050  22.476  22.552  0.00  0.00     0.178 C 
ATOM     17  O   UNL d   1     -29.838  22.172  21.394  0.00  0.00    -0.646 OA
BRANCH  16  18
ATOM     18  O   UNL d   1     -31.296  22.805  22.945  0.00  0.00    -0.773 OA
ATOM     19  H   UNL d   1     -31.925  22.080  23.065  0.00  0.00     0.167 HD
ENDBRANCH  16  18
ENDBRANCH   5  16
BRANCH   4  20
ATOM     20  N   UNL d   1     -30.175  20.968  24.959  0.00  0.00    -0.326 N 
ATOM     21  C   UNL d   1     -31.159  21.464  25.735  0.00  0.00     0.226 C 
ATOM     22  O   UNL d   1     -31.098  22.609  26.133  0.00  0.00    -0.273 OA
ATOM     23  H   UNL d   1     -30.260  20.079  24.578  0.00  0.00     0.169 HD
BRANCH  21  24
ATOM     24  C   UNL d   1     -32.334  20.598  26.109  0.00  0.00     0.078 A 
ATOM     25  C   UNL d   1     -33.190  20.040  24.971  0.00  0.00     0.015 A 
ATOM     26  C   UNL d   1     -32.257  19.112  25.753  0.00  0.00     0.015 A 
ENDBRANCH  21  24
ENDBRANCH   4  20
TORSDOF 7
ENDMDL
