MODEL 1
REMARK VINA RESULT:     -12.6      0.000      0.000
REMARK  3 active torsions:
REMARK  status: ('A' for Active; 'I' for Inactive)
REMARK    1  A    between atoms: N_1  and  C_2 
REMARK    2  A    between atoms: C_5  and  C_6 
REMARK    3  A    between atoms: C_9  and  N_10 
ROOT
ATOM      1  C   UNL d   1     -25.204  23.450  22.961  0.00  0.00    -0.026 A 
ATOM      2  C   UNL d   1     -25.756  24.182  24.011  0.00  0.00     0.014 A 
ATOM      3  C   UNL d   1     -26.890  23.725  24.648  0.00  0.00     0.032 A 
ATOM      4  C   UNL d   1     -27.481  22.533  24.244  0.00  0.00     0.060 A 
ATOM      5  C   UNL d   1     -26.929  21.798  23.201  0.00  0.00     0.032 A 
ATOM      6  C   UNL d   1     -25.800  22.255  22.558  0.00  0.00     0.014 A 
ENDROOT
BRANCH   4   7
ATOM      7  N   UNL d   1     -28.630  22.072  24.893  0.00  0.00    -0.209 N 
ATOM      8  C   UNL d   1     -29.854  21.893  24.321  0.00  0.00     0.146 A 
ATOM      9  C   UNL d   1     -30.679  21.429  25.340  0.00  0.00     0.164 A 
ATOM     10  C   UNL d   1     -30.384  22.092  22.965  0.00  0.00     0.214 A 
ATOM     11  N   UNL d   1     -29.909  21.357  26.433  0.00  0.00    -0.125 NA
ATOM     12  C   UNL d   1     -32.099  21.132  25.071  0.00  0.00     0.216 A 
ATOM     13  N   UNL d   1     -28.716  21.737  26.134  0.00  0.00    -0.059 NA
ATOM     14  C   UNL d   1     -32.644  21.327  23.710  0.00  0.00     0.031 A 
ATOM     15  O   UNL d   1     -32.817  20.727  25.964  0.00  0.00    -0.285 OA
ATOM     16  C   UNL d   1     -31.806  21.796  22.681  0.00  0.00     0.031 A 
ATOM     17  C   UNL d   1     -33.979  21.052  23.439  0.00  0.00     0.016 A 
ATOM     18  C   UNL d   1     -32.323  21.980  21.402  0.00  0.00     0.016 A 
ATOM     19  C   UNL d   1     -33.656  21.701  21.150  0.00  0.00     0.001 A 
ATOM     20  C   UNL d   1     -34.478  21.240  22.162  0.00  0.00     0.001 A 
ATOM     21  O   UNL d   1     -29.657  22.497  22.080  0.00  0.00    -0.285 OA
ENDBRANCH   4   7
BRANCH   1  22
ATOM     22  C   UNL d   1     -23.984  23.939  22.274  0.00  0.00    -0.026 A 
ATOM     23  C   UNL d   1     -23.174  24.895  22.885  0.00  0.00     0.014 A 
ATOM     24  C   UNL d   1     -22.041  25.348  22.245  0.00  0.00     0.030 A 
ATOM     25  C   UNL d   1     -21.705  24.853  20.990  0.00  0.00     0.025 A 
ATOM     26  C   UNL d   1     -22.512  23.899  20.379  0.00  0.00     0.030 A 
ATOM     27  C   UNL d   1     -23.642  23.439  21.017  0.00  0.00     0.014 A 
BRANCH  25  28
ATOM     28  N   UNL d   1     -20.557  25.313  20.343  0.00  0.00    -0.399 N 
ATOM     29  H   UNL d   1     -19.719  24.835  20.444  0.00  0.00     0.156 HD
ATOM     30  H   UNL d   1     -20.597  26.111  19.794  0.00  0.00     0.156 HD
ENDBRANCH  25  28
ENDBRANCH   1  22
TORSDOF 3
ENDMDL
