MODEL 1
REMARK VINA RESULT:     -10.8      0.000      0.000
REMARK  6 active torsions:
REMARK  status: ('A' for Active; 'I' for Inactive)
REMARK    1  A    between atoms: C_2  and  O_3 
REMARK    2  A    between atoms: C_2  and  C_4 
REMARK    3  A    between atoms: C_9  and  N_10 
REMARK    4  A    between atoms: N_10  and  N_11 
REMARK    5  A    between atoms: C_12  and  C_13 
REMARK    6  A    between atoms: C_16  and  C_17 
ROOT
ATOM      1  N   UNL d   1     -29.689  22.718  22.948  0.00  0.00    -0.184 NA
ATOM      2  C   UNL d   1     -28.675  22.075  23.452  0.00  0.00     0.175 C 
ENDROOT
BRANCH   1   3
ATOM      3  N   UNL d   1     -30.909  22.753  23.637  0.00  0.00    -0.278 N 
ATOM      4  H   UNL d   1     -31.007  23.321  24.417  0.00  0.00     0.189 HD
BRANCH   3   5
ATOM      5  C   UNL d   1     -31.972  21.978  23.204  0.00  0.00     0.067 A 
ATOM      6  C   UNL d   1     -32.513  20.989  24.042  0.00  0.00     0.065 A 
ATOM      7  C   UNL d   1     -33.586  20.213  23.593  0.00  0.00     0.021 A 
ATOM      8  C   UNL d   1     -34.104  20.423  22.334  0.00  0.00     0.001 A 
ATOM      9  C   UNL d   1     -33.568  21.400  21.508  0.00  0.00     0.002 A 
ATOM     10  C   UNL d   1     -32.510  22.173  21.936  0.00  0.00     0.032 A 
BRANCH   6  11
ATOM     11  C   UNL d   1     -31.953  20.770  25.387  0.00  0.00     0.178 C 
ATOM     12  O   UNL d   1     -31.698  19.644  25.764  0.00  0.00    -0.646 OA
BRANCH  11  13
ATOM     13  O   UNL d   1     -31.725  21.821  26.201  0.00  0.00    -0.773 OA
ATOM     14  H   UNL d   1     -31.999  22.692  25.880  0.00  0.00     0.167 HD
ENDBRANCH  11  13
ENDBRANCH   6  11
ENDBRANCH   3   5
ENDBRANCH   1   3
BRANCH   2  15
ATOM     15  C   UNL d   1     -27.400  22.038  22.731  0.00  0.00     0.095 A 
ATOM     16  O   UNL d   1     -26.302  22.761  23.028  0.00  0.00    -0.308 OA
ATOM     17  C   UNL d   1     -25.321  22.465  22.152  0.00  0.00     0.088 A 
ATOM     18  C   UNL d   1     -25.793  21.543  21.267  0.00  0.00     0.041 A 
ATOM     19  C   UNL d   1     -27.118  21.263  21.628  0.00  0.00     0.041 A 
BRANCH  17  20
ATOM     20  C   UNL d   1     -23.966  23.049  22.149  0.00  0.00     0.019 A 
ATOM     21  C   UNL d   1     -23.378  23.454  20.949  0.00  0.00     0.047 A 
ATOM     22  C   UNL d   1     -22.109  23.998  20.956  0.00  0.00     0.025 A 
ATOM     23 CL   UNL d   1     -24.239  23.272  19.453  0.00  0.00    -0.083 Cl
ATOM     24  C   UNL d   1     -21.422  24.144  22.147  0.00  0.00     0.002 A 
ATOM     25  C   UNL d   1     -21.999  23.745  23.340  0.00  0.00     0.001 A 
ATOM     26  C   UNL d   1     -23.268  23.205  23.349  0.00  0.00     0.016 A 
ENDBRANCH  17  20
ENDBRANCH   2  15
TORSDOF 6
ENDMDL
