MODEL 1
REMARK VINA RESULT:     -10.7      0.000      0.000
REMARK  4 active torsions:
REMARK  status: ('A' for Active; 'I' for Inactive)
REMARK    1  A    between atoms: O_2  and  C_3 
REMARK    2  A    between atoms: C_8  and  N_9 
REMARK       I    between atoms: N_9  and  C_10 
REMARK    3  A    between atoms: C_10  and  C_12 
REMARK    4  A    between atoms: C_15  and  C_16 
ROOT
ATOM      1  N   UNL d   1     -27.577  22.635  23.077  0.00  0.00    -0.320 N 
ATOM      2  C   UNL d   1     -26.822  23.451  23.838  0.00  0.00     0.256 C 
ATOM      3  O   UNL d   1     -27.282  23.934  24.853  0.00  0.00    -0.267 OA
ATOM      4  H   UNL d   1     -27.239  22.313  22.226  0.00  0.00     0.169 HD
ENDROOT
BRANCH   1   5
ATOM      5  C   UNL d   1     -28.851  22.250  23.514  0.00  0.00     0.069 A 
ATOM      6  C   UNL d   1     -29.958  22.436  22.688  0.00  0.00     0.095 A 
ATOM      7  C   UNL d   1     -31.217  22.053  23.126  0.00  0.00     0.046 A 
ATOM      8  C   UNL d   1     -31.364  21.489  24.380  0.00  0.00    -0.049 A 
ATOM      9  C   UNL d   1     -32.742  21.074  24.851  0.00  0.00     0.039 C 
ATOM     10  C   UNL d   1     -30.274  21.304  25.193  0.00  0.00    -0.050 A 
ATOM     11  C   UNL d   1     -32.807  19.545  24.880  0.00  0.00     0.005 C 
ATOM     12  C   UNL d   1     -32.272  19.005  26.191  0.00  0.00     0.001 C 
ATOM     13  C   UNL d   1     -30.782  19.202  26.389  0.00  0.00     0.005 C 
ATOM     14  C   UNL d   1     -30.446  20.685  26.565  0.00  0.00     0.039 C 
ATOM     15  C   UNL d   1     -29.011  21.676  24.768  0.00  0.00     0.040 A 
BRANCH   6  16
ATOM     16  O   UNL d   1     -29.803  22.992  21.457  0.00  0.00    -0.354 OA
ATOM     17  C   UNL d   1     -30.541  22.404  20.383  0.00  0.00     0.210 C 
ENDBRANCH   6  16
ENDBRANCH   1   5
BRANCH   2  18
ATOM     18  C   UNL d   1     -25.432  23.760  23.437  0.00  0.00     0.032 A 
ATOM     19  C   UNL d   1     -24.907  25.034  23.657  0.00  0.00     0.017 A 
ATOM     20  C   UNL d   1     -23.609  25.316  23.281  0.00  0.00     0.009 A 
ATOM     21  C   UNL d   1     -22.829  24.338  22.691  0.00  0.00    -0.051 A 
ATOM     22  C   UNL d   1     -23.347  23.074  22.465  0.00  0.00     0.009 A 
ATOM     23  C   UNL d   1     -24.642  22.779  22.837  0.00  0.00     0.017 A 
BRANCH  21  24
ATOM     24  C   UNL d   1     -21.411  24.651  22.287  0.00  0.00    -0.024 C 
ATOM     25  C   UNL d   1     -20.939  25.908  23.021  0.00  0.00     0.019 C 
ATOM     26  C   UNL d   1     -20.505  23.474  22.656  0.00  0.00     0.019 C 
ATOM     27  C   UNL d   1     -21.351  24.889  20.778  0.00  0.00     0.019 C 
ENDBRANCH  21  24
ENDBRANCH   2  18
TORSDOF 4
ENDMDL
