MODEL 1
REMARK VINA RESULT:     -10.7      0.000      0.000
REMARK  7 active torsions:
REMARK  status: ('A' for Active; 'I' for Inactive)
REMARK    1  A    between atoms: C_2  and  O_3 
REMARK    2  A    between atoms: O_3  and  C_4 
REMARK    3  A    between atoms: C_9  and  C_10 
REMARK    4  A    between atoms: C_14  and  N_15 
REMARK       I    between atoms: N_15  and  C_16 
REMARK    5  A    between atoms: C_16  and  C_18 
REMARK    6  A    between atoms: C_22  and  C_23 
REMARK    7  A    between atoms: C_23  and  O_25 
ROOT
ATOM      1  C   UNL d   1     -29.113  22.196  22.506  0.00  0.00    -0.017 A 
ATOM      2  C   UNL d   1     -28.505  22.593  23.695  0.00  0.00     0.057 A 
ATOM      3  C   UNL d   1     -27.129  22.697  23.767  0.00  0.00     0.147 A 
ATOM      4  F   UNL d   1     -26.540  23.076  24.921  0.00  0.00    -0.204 F 
ATOM      5  C   UNL d   1     -26.352  22.419  22.648  0.00  0.00     0.113 A 
ATOM      6  C   UNL d   1     -26.957  22.028  21.457  0.00  0.00     0.147 A 
ATOM      7  F   UNL d   1     -26.199  21.758  20.372  0.00  0.00    -0.204 F 
ATOM      8  C   UNL d   1     -28.331  21.916  21.385  0.00  0.00     0.057 A 
ENDROOT
BRANCH   5   9
ATOM      9  N   UNL d   1     -24.958  22.532  22.720  0.00  0.00    -0.318 N 
ATOM     10  C   UNL d   1     -24.388  23.740  22.893  0.00  0.00     0.257 C 
ATOM     11  O   UNL d   1     -25.082  24.715  23.105  0.00  0.00    -0.267 OA
ATOM     12  H   UNL d   1     -24.403  21.739  22.644  0.00  0.00     0.169 HD
BRANCH  10  13
ATOM     13  C   UNL d   1     -22.920  23.879  22.827  0.00  0.00     0.056 A 
ATOM     14  C   UNL d   1     -22.222  24.082  21.651  0.00  0.00     0.093 A 
ATOM     15  S   UNL d   1     -20.506  24.194  22.016  0.00  0.00    -0.094 SA
ATOM     16  C   UNL d   1     -20.790  23.962  23.681  0.00  0.00     0.052 A 
ATOM     17  C   UNL d   1     -22.090  23.814  23.938  0.00  0.00     0.026 A 
BRANCH  14  18
ATOM     18  C   UNL d   1     -22.819  24.189  20.315  0.00  0.00     0.184 C 
ATOM     19  O   UNL d   1     -23.467  23.265  19.862  0.00  0.00    -0.646 OA
BRANCH  18  20
ATOM     20  O   UNL d   1     -22.647  25.312  19.588  0.00  0.00    -0.772 OA
ATOM     21  H   UNL d   1     -22.080  25.246  18.807  0.00  0.00     0.167 HD
ENDBRANCH  18  20
ENDBRANCH  14  18
ENDBRANCH  10  13
ENDBRANCH   5   9
BRANCH   1  22
ATOM     22  C   UNL d   1     -30.589  22.075  22.430  0.00  0.00     0.008 A 
ATOM     23  C   UNL d   1     -31.339  21.895  23.595  0.00  0.00     0.079 A 
ATOM     24  C   UNL d   1     -32.719  21.785  23.515  0.00  0.00     0.037 A 
ATOM     25  C   UNL d   1     -33.348  21.854  22.286  0.00  0.00     0.003 A 
ATOM     26  C   UNL d   1     -32.607  22.032  21.131  0.00  0.00     0.001 A 
ATOM     27  C   UNL d   1     -31.233  22.144  21.196  0.00  0.00     0.015 A 
BRANCH  23  28
ATOM     28  O   UNL d   1     -30.719  21.827  24.801  0.00  0.00    -0.351 OA
BRANCH  28  29
ATOM     29  C   UNL d   1     -31.479  21.301  25.893  0.00  0.00     0.171 C 
ATOM     30  C   UNL d   1     -31.080  19.844  26.134  0.00  0.00     0.034 C 
ENDBRANCH  28  29
ENDBRANCH  23  28
ENDBRANCH   1  22
TORSDOF 7
ENDMDL
