MODEL 1
REMARK VINA RESULT:     -11.3      0.000      0.000
REMARK  6 active torsions:
REMARK  status: ('A' for Active; 'I' for Inactive)
REMARK    1  A    between atoms: C_2  and  O_3 
REMARK    2  A    between atoms: C_2  and  C_34 
REMARK    3  A    between atoms: O_3  and  C_4 
REMARK    4  A    between atoms: C_6  and  N_7 
REMARK    5  A    between atoms: C_20  and  C_21 
REMARK       I    between atoms: C_21  and  N_23 
REMARK    6  A    between atoms: N_23  and  C_24 
ROOT
ATOM      1  C   UNL d   1     -24.713  23.348  22.657  0.00  0.00     0.087 A 
ATOM      2  C   UNL d   1     -25.973  22.801  22.833  0.00  0.00     0.073 A 
ATOM      3  C   UNL d   1     -26.832  23.327  23.788  0.00  0.00     0.104 A 
ATOM      4  C   UNL d   1     -26.427  24.400  24.582  0.00  0.00     0.146 A 
ATOM      5  F   UNL d   1     -27.266  24.904  25.513  0.00  0.00    -0.204 F 
ATOM      6  C   UNL d   1     -25.174  24.948  24.420  0.00  0.00     0.064 A 
ATOM      7  C   UNL d   1     -24.303  24.427  23.456  0.00  0.00     0.068 A 
ENDROOT
BRANCH   7   8
ATOM      8  C   UNL d   1     -22.963  25.009  23.279  0.00  0.00     0.259 C 
ATOM      9  O   UNL d   1     -22.822  26.025  22.626  0.00  0.00    -0.267 OA
ATOM     10  N   UNL d   1     -21.891  24.416  23.842  0.00  0.00    -0.322 N 
ATOM     11  H   UNL d   1     -22.010  23.640  24.412  0.00  0.00     0.169 HD
BRANCH  10  12
ATOM     12  C   UNL d   1     -20.613  24.917  23.605  0.00  0.00     0.047 A 
ATOM     13  C   UNL d   1     -20.038  25.852  24.491  0.00  0.00     0.019 A 
ATOM     14  C   UNL d   1     -18.737  26.351  24.233  0.00  0.00     0.069 A 
ATOM     15  C   UNL d   1     -20.729  26.303  25.628  0.00  0.00     0.017 A 
ATOM     16  C   UNL d   1     -18.042  25.903  23.096  0.00  0.00     0.032 A 
ATOM     17  N   UNL d   1     -18.188  27.238  25.070  0.00  0.00    -0.260 NA
ATOM     18  C   UNL d   1     -18.619  24.999  22.257  0.00  0.00     0.005 A 
ATOM     19  C   UNL d   1     -19.894  24.498  22.503  0.00  0.00     0.030 A 
ATOM     20  C   UNL d   1     -18.829  27.660  26.132  0.00  0.00     0.117 A 
ATOM     21  C   UNL d   1     -20.110  27.210  26.442  0.00  0.00     0.020 A 
ENDBRANCH  10  12
ENDBRANCH   7   8
BRANCH   1  22
ATOM     22  O   UNL d   1     -23.875  22.838  21.721  0.00  0.00    -0.336 OA
BRANCH  22  23
ATOM     23  C   UNL d   1     -23.956  23.392  20.407  0.00  0.00     0.232 C 
ATOM     24  C   UNL d   1     -22.559  23.812  19.942  0.00  0.00     0.049 C 
BRANCH  23  25
ATOM     25  C   UNL d   1     -24.519  22.345  19.444  0.00  0.00     0.413 C 
ATOM     26  F   UNL d   1     -23.678  21.227  19.426  0.00  0.00    -0.168 F 
ATOM     27  F   UNL d   1     -25.796  21.960  19.869  0.00  0.00    -0.168 F 
ATOM     28  F   UNL d   1     -24.600  22.889  18.158  0.00  0.00    -0.168 F 
ENDBRANCH  23  25
ENDBRANCH  22  23
ENDBRANCH   1  22
BRANCH   3  29
ATOM     29  N   UNL d   1     -28.103  22.777  23.959  0.00  0.00    -0.178 N 
ATOM     30  C   UNL d   1     -28.510  22.006  24.991  0.00  0.00     0.351 A 
ATOM     31  N   UNL d   1     -29.805  21.713  24.787  0.00  0.00    -0.284 N 
ATOM     32  O   UNL d   1     -27.829  21.644  25.933  0.00  0.00    -0.244 OA
ATOM     33  C   UNL d   1     -30.194  22.277  23.589  0.00  0.00     0.131 A 
ATOM     34  C   UNL d   1     -30.697  20.948  25.666  0.00  0.00     0.135 C 
ATOM     35  N   UNL d   1     -29.195  22.920  23.088  0.00  0.00    -0.149 NA
ATOM     36  C   UNL d   1     -31.578  22.128  23.002  0.00  0.00     0.081 C 
ATOM     37  C   UNL d   1     -32.525  21.683  24.125  0.00  0.00     0.009 C 
ATOM     38  C   UNL d   1     -31.908  20.482  24.850  0.00  0.00     0.021 C 
ENDBRANCH   3  29
TORSDOF 6
ENDMDL
