MODEL 1
REMARK VINA RESULT:     -10.1      0.000      0.000
REMARK  9 active torsions:
REMARK  status: ('A' for Active; 'I' for Inactive)
REMARK    1  A    between atoms: C_2  and  N_3 
REMARK    2  A    between atoms: C_4  and  C_5 
REMARK    3  A    between atoms: C_5  and  O_7 
REMARK    4  A    between atoms: N_9  and  C_10 
REMARK    5  A    between atoms: C_13  and  C_14 
REMARK       I    between atoms: C_14  and  N_16 
REMARK    6  A    between atoms: N_16  and  C_17 
REMARK    7  A    between atoms: C_25  and  O_26 
REMARK    8  A    between atoms: O_26  and  C_27 
REMARK    9  A    between atoms: C_27  and  C_29 
ROOT
ATOM      1  C   UNL d   1     -26.883  23.511  23.646  0.00  0.00     0.066 A 
ATOM      2  C   UNL d   1     -26.618  24.620  24.447  0.00  0.00     0.033 A 
ATOM      3  C   UNL d   1     -25.386  25.210  24.421  0.00  0.00     0.022 A 
ATOM      4  C   UNL d   1     -24.383  24.704  23.588  0.00  0.00     0.065 A 
ATOM      5  C   UNL d   1     -24.647  23.590  22.776  0.00  0.00     0.087 A 
ATOM      6  C   UNL d   1     -25.898  22.996  22.814  0.00  0.00     0.069 A 
ENDROOT
BRANCH   1   7
ATOM      7  N   UNL d   1     -28.146  22.916  23.682  0.00  0.00    -0.180 N 
ATOM      8  N   UNL d   1     -29.177  23.108  22.753  0.00  0.00    -0.137 NA
ATOM      9  C   UNL d   1     -30.197  22.381  23.125  0.00  0.00     0.228 A 
ATOM     10  N   UNL d   1     -29.857  21.713  24.289  0.00  0.00    -0.276 N 
ATOM     11  C   UNL d   1     -28.592  22.048  24.613  0.00  0.00     0.351 A 
ATOM     12  O   UNL d   1     -27.966  21.642  25.575  0.00  0.00    -0.244 OA
BRANCH   9  13
ATOM     13  C   UNL d   1     -31.492  22.291  22.427  0.00  0.00     0.215 C 
ATOM     14  O   UNL d   1     -31.530  21.966  21.257  0.00  0.00    -0.644 OA
BRANCH  13  15
ATOM     15  O   UNL d   1     -32.634  22.570  23.088  0.00  0.00    -0.770 OA
ATOM     16  H   UNL d   1     -32.563  22.728  24.040  0.00  0.00     0.168 HD
ENDBRANCH  13  15
ENDBRANCH   9  13
BRANCH  10  17
ATOM     17  C   UNL d   1     -30.719  20.794  25.036  0.00  0.00     0.131 C 
ATOM     18  C   UNL d   1     -31.528  21.579  26.070  0.00  0.00     0.027 C 
ENDBRANCH  10  17
ENDBRANCH   1   7
BRANCH   5  19
ATOM     19  O   UNL d   1     -23.683  23.095  21.962  0.00  0.00    -0.336 OA
BRANCH  19  20
ATOM     20  C   UNL d   1     -23.858  23.285  20.557  0.00  0.00     0.232 C 
ATOM     21  C   UNL d   1     -22.518  23.669  19.924  0.00  0.00     0.049 C 
BRANCH  20  22
ATOM     22  C   UNL d   1     -24.368  21.989  19.925  0.00  0.00     0.413 C 
ATOM     23  F   UNL d   1     -24.216  20.936  20.833  0.00  0.00    -0.168 F 
ATOM     24  F   UNL d   1     -25.721  22.131  19.597  0.00  0.00    -0.168 F 
ATOM     25  F   UNL d   1     -23.633  21.715  18.766  0.00  0.00    -0.168 F 
ENDBRANCH  20  22
ENDBRANCH  19  20
ENDBRANCH   5  19
BRANCH   4  26
ATOM     26  C   UNL d   1     -23.055  25.341  23.559  0.00  0.00     0.259 C 
ATOM     27  O   UNL d   1     -22.906  26.413  23.003  0.00  0.00    -0.267 OA
ATOM     28  N   UNL d   1     -22.004  24.736  24.147  0.00  0.00    -0.319 N 
ATOM     29  H   UNL d   1     -22.104  23.845  24.519  0.00  0.00     0.169 HD
BRANCH  28  30
ATOM     30  C   UNL d   1     -20.770  25.393  24.223  0.00  0.00     0.096 A 
ATOM     31  C   UNL d   1     -19.753  25.069  23.335  0.00  0.00     0.064 A 
ATOM     32  C   UNL d   1     -18.535  25.719  23.413  0.00  0.00     0.026 A 
ATOM     33 CL   UNL d   1     -20.011  23.848  22.126  0.00  0.00    -0.082 Cl
ATOM     34  C   UNL d   1     -18.328  26.690  24.374  0.00  0.00     0.005 A 
ATOM     35  C   UNL d   1     -19.340  27.021  25.258  0.00  0.00     0.045 A 
ATOM     36  C   UNL d   1     -20.560  26.371  25.189  0.00  0.00     0.144 A 
ATOM     37  F   UNL d   1     -21.545  26.690  26.055  0.00  0.00    -0.204 F 
ENDBRANCH  28  30
ENDBRANCH   4  26
TORSDOF 9
ENDMDL
