MODEL 1
REMARK VINA RESULT:      -8.7      0.000      0.000
REMARK  5 active torsions:
REMARK  status: ('A' for Active; 'I' for Inactive)
REMARK    1  A    between atoms: C_5  and  N_6 
REMARK    2  A    between atoms: N_6  and  C_7 
REMARK    3  A    between atoms: C_8  and  C_9 
REMARK       I    between atoms: C_9  and  N_11 
REMARK    4  A    between atoms: N_11  and  C_12 
REMARK    5  A    between atoms: C_12  and  C_13 
ROOT
ATOM      1  C   UNL d   1     -27.576  22.584  22.531  0.00  0.00     0.090 A 
ATOM      2  C   UNL d   1     -26.245  22.921  22.746  0.00  0.00     0.112 A 
ATOM      3  C   UNL d   1     -25.268  22.174  22.108  0.00  0.00     0.177 A 
ATOM      4  O   UNL d   1     -24.076  22.378  22.227  0.00  0.00    -0.291 OA
ATOM      5  C   UNL d   1     -25.848  21.082  21.241  0.00  0.00     0.165 A 
ATOM      6  S   UNL d   1     -27.649  21.251  21.450  0.00  0.00    -0.103 SA
ENDROOT
BRANCH   1   7
ATOM      7  N   UNL d   1     -28.651  23.213  23.085  0.00  0.00    -0.350 N 
ATOM      8  H   UNL d   1     -28.702  24.182  23.081  0.00  0.00     0.166 HD
BRANCH   7   9
ATOM      9  C   UNL d   1     -29.682  22.462  23.660  0.00  0.00     0.033 A 
ATOM     10  C   UNL d   1     -29.443  21.719  24.810  0.00  0.00     0.030 A 
ATOM     11  C   UNL d   1     -30.463  20.978  25.374  0.00  0.00     0.009 A 
ATOM     12  C   UNL d   1     -31.721  20.980  24.801  0.00  0.00    -0.056 A 
ATOM     13  C   UNL d   1     -32.833  20.175  25.424  0.00  0.00     0.049 C 
ATOM     14  C   UNL d   1     -31.960  21.716  23.655  0.00  0.00    -0.054 A 
ATOM     15  C   UNL d   1     -30.945  22.458  23.085  0.00  0.00     0.036 A 
ATOM     16  C   UNL d   1     -33.332  21.710  23.030  0.00  0.00     0.049 C 
ENDBRANCH   7   9
ENDBRANCH   1   7
BRANCH   2  17
ATOM     17  C   UNL d   1     -25.884  24.034  23.627  0.00  0.00     0.258 C 
ATOM     18  O   UNL d   1     -26.511  24.226  24.653  0.00  0.00    -0.267 OA
ATOM     19  N   UNL d   1     -24.858  24.844  23.304  0.00  0.00    -0.356 N 
ATOM     20  H   UNL d   1     -24.322  24.658  22.516  0.00  0.00     0.162 HD
BRANCH  19  21
ATOM     21  C   UNL d   1     -24.551  26.008  24.140  0.00  0.00     0.127 C 
BRANCH  21  22
ATOM     22  C   UNL d   1     -23.358  26.760  23.548  0.00  0.00     0.003 A 
ATOM     23  C   UNL d   1     -22.241  27.180  24.507  0.00  0.00     0.007 A 
ATOM     24  C   UNL d   1     -22.010  26.036  23.516  0.00  0.00     0.007 A 
ENDBRANCH  21  22
ENDBRANCH  19  21
ENDBRANCH   2  17
TORSDOF 5
ENDMDL
