MODEL 1
REMARK VINA RESULT:     -10.0      0.000      0.000
REMARK  7 active torsions:
REMARK  status: ('A' for Active; 'I' for Inactive)
REMARK    1  A    between atoms: C_2  and  N_3 
REMARK    2  A    between atoms: C_4  and  C_5 
REMARK    3  A    between atoms: C_5  and  O_6 
REMARK    4  A    between atoms: N_8  and  C_9 
REMARK    5  A    between atoms: C_12  and  C_13 
REMARK    6  A    between atoms: N_17  and  C_18 
REMARK    7  A    between atoms: C_22  and  O_23 
ROOT
ATOM      1  C   UNL d   1     -29.033  22.099  21.995  0.00  0.00     0.103 A 
ATOM      2  C   UNL d   1     -28.295  22.873  22.874  0.00  0.00     0.048 A 
ATOM      3  C   UNL d   1     -26.917  22.985  22.695  0.00  0.00    -0.010 A 
ATOM      4  C   UNL d   1     -26.084  23.789  23.591  0.00  0.00    -0.028 A 
ATOM      5  C   UNL d   1     -24.762  23.864  23.371  0.00  0.00     0.103 A 
ATOM      6  N   UNL d   1     -24.155  23.217  22.332  0.00  0.00    -0.319 N 
ATOM      7  C   UNL d   1     -24.842  22.451  21.461  0.00  0.00     0.259 A 
ATOM      8  O   UNL d   1     -24.265  21.885  20.550  0.00  0.00    -0.267 OA
ATOM      9  C   UNL d   1     -26.293  22.310  21.620  0.00  0.00     0.046 A 
ATOM     10  C   UNL d   1     -27.058  21.535  20.747  0.00  0.00     0.062 A 
ATOM     11  C   UNL d   1     -28.408  21.434  20.936  0.00  0.00     0.146 A 
ATOM     12  F   UNL d   1     -29.146  20.684  20.089  0.00  0.00    -0.204 F 
ENDROOT
BRANCH   1  13
ATOM     13  N   UNL d   1     -30.414  21.980  22.168  0.00  0.00    -0.178 N 
ATOM     14  N   UNL d   1     -31.389  22.074  21.165  0.00  0.00    -0.147 NA
ATOM     15  C   UNL d   1     -32.549  21.908  21.713  0.00  0.00     0.154 A 
ATOM     16  N   UNL d   1     -32.378  21.711  23.061  0.00  0.00    -0.283 N 
ATOM     17  C   UNL d   1     -31.059  21.757  23.333  0.00  0.00     0.351 A 
ATOM     18  O   UNL d   1     -30.543  21.622  24.428  0.00  0.00    -0.244 OA
BRANCH  15  19
ATOM     19  C   UNL d   1     -33.872  21.931  20.992  0.00  0.00     0.244 C 
BRANCH  19  20
ATOM     20  O   UNL d   1     -34.616  23.081  21.400  0.00  0.00    -0.393 OA
ATOM     21  H   UNL d   1     -35.282  23.366  20.760  0.00  0.00     0.209 HD
ENDBRANCH  19  20
ENDBRANCH  15  19
BRANCH  16  22
ATOM     22  C   UNL d   1     -33.447  21.490  24.039  0.00  0.00     0.131 C 
ATOM     23  C   UNL d   1     -33.398  20.042  24.531  0.00  0.00     0.027 C 
ENDBRANCH  16  22
ENDBRANCH   1  13
BRANCH   4  24
ATOM     24  C   UNL d   1     -26.704  24.528  24.749  0.00  0.00     0.013 C 
ATOM     25  C   UNL d   1     -26.775  23.602  25.966  0.00  0.00     0.015 C 
ATOM     26  C   UNL d   1     -25.852  25.752  25.088  0.00  0.00     0.015 C 
ENDBRANCH   4  24
BRANCH   6  27
ATOM     27  C   UNL d   1     -22.707  23.356  22.161  0.00  0.00     0.095 C 
ATOM     28  C   UNL d   1     -22.089  23.884  23.457  0.00  0.00     0.057 C 
ATOM     29  C   UNL d   1     -20.576  24.029  23.278  0.00  0.00     0.122 C 
ATOM     30  C   UNL d   1     -20.289  25.009  22.139  0.00  0.00     0.032 C 
ATOM     31  C   UNL d   1     -20.907  24.481  20.843  0.00  0.00     0.004 C 
ATOM     32  C   UNL d   1     -22.420  24.335  21.022  0.00  0.00     0.026 C 
BRANCH  29  33
ATOM     33  O   UNL d   1     -19.998  24.523  24.488  0.00  0.00    -0.391 OA
ATOM     34  C   UNL d   1     -18.864  25.367  24.288  0.00  0.00     0.202 C 
ENDBRANCH  29  33
ENDBRANCH   6  27
TORSDOF 7
ENDMDL
