MODEL 1
REMARK VINA RESULT:     -12.1      0.000      0.000
REMARK  4 active torsions:
REMARK  status: ('A' for Active; 'I' for Inactive)
REMARK    1  A    between atoms: C_3  and  C_4 
REMARK    2  A    between atoms: C_7  and  C_8 
REMARK    3  A    between atoms: C_25  and  C_26 
REMARK    4  A    between atoms: C_26  and  O_27 
ROOT
ATOM      1  C   UNL d   1     -27.544  21.916  25.769  0.00  0.00     0.051 C 
ATOM      2  C   UNL d   1     -28.570  21.994  24.668  0.00  0.00    -0.023 A 
ATOM      3  C   UNL d   1     -28.194  22.422  23.384  0.00  0.00     0.074 A 
ATOM      4  N   UNL d   1     -29.069  22.501  22.401  0.00  0.00    -0.247 NA
ATOM      5  C   UNL d   1     -30.352  22.178  22.586  0.00  0.00     0.068 A 
ATOM      6  C   UNL d   1     -31.279  22.265  21.532  0.00  0.00     0.035 A 
ATOM      7  C   UNL d   1     -32.581  21.936  21.748  0.00  0.00     0.044 A 
ATOM      8  C   UNL d   1     -33.014  21.497  23.001  0.00  0.00     0.117 A 
ATOM      9  F   UNL d   1     -34.312  21.172  23.182  0.00  0.00    -0.206 F 
ATOM     10  C   UNL d   1     -32.143  21.401  24.046  0.00  0.00     0.056 A 
ATOM     11  C   UNL d   1     -30.794  21.739  23.859  0.00  0.00     0.004 A 
ATOM     12  C   UNL d   1     -29.865  21.651  24.916  0.00  0.00    -0.014 A 
ENDROOT
BRANCH   3  13
ATOM     13  C   UNL d   1     -26.782  22.792  23.129  0.00  0.00    -0.007 A 
ATOM     14  C   UNL d   1     -25.999  22.012  22.276  0.00  0.00     0.014 A 
ATOM     15  C   UNL d   1     -24.687  22.357  22.039  0.00  0.00     0.013 A 
ATOM     16  C   UNL d   1     -24.140  23.485  22.652  0.00  0.00    -0.023 A 
ATOM     17  C   UNL d   1     -24.922  24.264  23.503  0.00  0.00     0.013 A 
ATOM     18  C   UNL d   1     -26.236  23.923  23.737  0.00  0.00     0.014 A 
BRANCH  16  19
ATOM     19  C   UNL d   1     -22.728  23.855  22.396  0.00  0.00     0.013 A 
ATOM     20  C   UNL d   1     -22.362  24.427  21.177  0.00  0.00     0.127 A 
ATOM     21  C   UNL d   1     -21.042  24.771  20.946  0.00  0.00     0.043 A 
ATOM     22  F   UNL d   1     -23.295  24.646  20.225  0.00  0.00    -0.205 F 
ATOM     23  C   UNL d   1     -20.088  24.547  21.921  0.00  0.00     0.003 A 
ATOM     24  C   UNL d   1     -20.445  23.980  23.130  0.00  0.00     0.001 A 
ATOM     25  C   UNL d   1     -21.760  23.638  23.375  0.00  0.00     0.015 A 
ENDBRANCH  16  19
ENDBRANCH   3  13
BRANCH  12  26
ATOM     26  C   UNL d   1     -30.294  21.189  26.284  0.00  0.00     0.204 C 
BRANCH  26  27
ATOM     27  O   UNL d   1     -30.268  19.761  26.335  0.00  0.00    -0.396 OA
ATOM     28  H   UNL d   1     -30.592  19.390  27.167  0.00  0.00     0.209 HD
ENDBRANCH  26  27
ENDBRANCH  12  26
TORSDOF 4
ENDMDL
