MODEL 1
REMARK VINA RESULT:      -7.6      0.000      0.000
REMARK  7 active torsions:
REMARK  status: ('A' for Active; 'I' for Inactive)
REMARK    1  A    between atoms: C_2  and  C_4 
REMARK    2  A    between atoms: N_6  and  C_7 
REMARK    3  A    between atoms: C_12  and  O_13 
REMARK    4  A    between atoms: C_23  and  N_24 
REMARK    5  A    between atoms: C_26  and  C_27 
REMARK    6  A    between atoms: C_27  and  O_28 
REMARK    7  A    between atoms: N_29  and  C_30 
ROOT
ATOM      1  C   UNL d   1     -19.552  26.795  25.238  0.00  0.00    -0.004 A 
ATOM      2  C   UNL d   1     -18.365  27.316  25.637  0.00  0.00     0.113 A 
ATOM      3  N   UNL d   1     -17.204  27.085  24.956  0.00  0.00    -0.287 N 
ATOM      4  C   UNL d   1     -17.158  26.327  23.844  0.00  0.00     0.263 A 
ATOM      5  O   UNL d   1     -16.101  26.149  23.268  0.00  0.00    -0.267 OA
ATOM      6  C   UNL d   1     -18.390  25.719  23.332  0.00  0.00     0.047 A 
ATOM      7  C   UNL d   1     -18.395  24.925  22.183  0.00  0.00     0.062 A 
ATOM      8  C   UNL d   1     -19.568  24.379  21.742  0.00  0.00     0.146 A 
ATOM      9  F   UNL d   1     -19.571  23.611  20.630  0.00  0.00    -0.204 F 
ATOM     10  C   UNL d   1     -20.764  24.605  22.428  0.00  0.00     0.103 A 
ATOM     11  C   UNL d   1     -20.783  25.394  23.567  0.00  0.00     0.048 A 
ATOM     12  C   UNL d   1     -19.596  25.952  24.031  0.00  0.00    -0.006 A 
ENDROOT
BRANCH  10  13
ATOM     13  N   UNL d   1     -21.951  24.037  21.959  0.00  0.00    -0.178 N 
ATOM     14  C   UNL d   1     -22.516  24.246  20.751  0.00  0.00     0.351 A 
ATOM     15  N   UNL d   1     -23.645  23.512  20.702  0.00  0.00    -0.283 N 
ATOM     16  O   UNL d   1     -22.084  24.964  19.868  0.00  0.00    -0.244 OA
ATOM     17  C   UNL d   1     -23.782  22.848  21.896  0.00  0.00     0.154 A 
ATOM     18  N   UNL d   1     -22.777  23.145  22.656  0.00  0.00    -0.147 NA
BRANCH  15  19
ATOM     19  C   UNL d   1     -24.573  23.440  19.570  0.00  0.00     0.131 C 
ATOM     20  C   UNL d   1     -24.187  22.267  18.668  0.00  0.00     0.027 C 
ENDBRANCH  15  19
BRANCH  17  21
ATOM     21  C   UNL d   1     -24.914  21.922  22.260  0.00  0.00     0.244 C 
BRANCH  21  22
ATOM     22  O   UNL d   1     -24.739  20.670  21.595  0.00  0.00    -0.393 OA
ATOM     23  H   UNL d   1     -24.041  20.673  20.926  0.00  0.00     0.209 HD
ENDBRANCH  21  22
ENDBRANCH  17  21
ENDBRANCH  10  13
BRANCH   1  24
ATOM     24  C   UNL d   1     -20.784  27.068  26.003  0.00  0.00    -0.059 C 
ATOM     25  C   UNL d   1     -20.926  26.580  27.229  0.00  0.00     0.019 C 
ATOM     26  C   UNL d   1     -21.882  27.901  25.392  0.00  0.00     0.048 C 
ENDBRANCH   1  24
BRANCH   3  27
ATOM     27  C   UNL d   1     -16.020  27.658  25.430  0.00  0.00     0.059 A 
ATOM     28  C   UNL d   1     -15.557  28.864  24.916  0.00  0.00     0.019 A 
ATOM     29  C   UNL d   1     -14.379  29.399  25.413  0.00  0.00     0.172 A 
ATOM     30  C   UNL d   1     -16.325  29.579  23.834  0.00  0.00     0.055 C 
ATOM     31  N   UNL d   1     -13.701  28.774  26.363  0.00  0.00    -0.236 NA
ATOM     32  C   UNL d   1     -14.112  27.628  26.872  0.00  0.00     0.128 A 
ATOM     33  C   UNL d   1     -15.278  27.036  26.433  0.00  0.00    -0.016 A 
ATOM     34  C   UNL d   1     -15.740  25.730  27.027  0.00  0.00     0.052 C 
BRANCH  29  35
ATOM     35  O   UNL d   1     -13.914  30.575  24.921  0.00  0.00    -0.339 OA
ATOM     36  C   UNL d   1     -13.920  31.697  25.805  0.00  0.00     0.211 C 
ENDBRANCH  29  35
ENDBRANCH   3  27
TORSDOF 7
ENDMDL
