MODEL 1
REMARK VINA RESULT:     -10.0      0.000      0.000
REMARK  7 active torsions:
REMARK  status: ('A' for Active; 'I' for Inactive)
REMARK    1  A    between atoms: C_2  and  C_3 
REMARK    2  A    between atoms: C_3  and  C_4 
REMARK    3  A    between atoms: C_4  and  O_6 
REMARK    4  A    between atoms: O_6  and  C_7 
REMARK    5  A    between atoms: C_9  and  N_10 
REMARK    6  A    between atoms: C_23  and  C_24 
REMARK       I    between atoms: C_24  and  N_26 
REMARK    7  A    between atoms: N_26  and  C_27 
ROOT
ATOM      1  C   UNL d   1     -26.151  23.231  23.341  0.00  0.00     0.087 A 
ATOM      2  C   UNL d   1     -27.526  23.081  23.383  0.00  0.00     0.073 A 
ATOM      3  C   UNL d   1     -28.162  22.239  22.481  0.00  0.00     0.104 A 
ATOM      4  C   UNL d   1     -27.418  21.542  21.528  0.00  0.00     0.146 A 
ATOM      5  F   UNL d   1     -28.043  20.721  20.655  0.00  0.00    -0.204 F 
ATOM      6  C   UNL d   1     -26.051  21.685  21.477  0.00  0.00     0.064 A 
ATOM      7  C   UNL d   1     -25.402  22.531  22.383  0.00  0.00     0.068 A 
ENDROOT
BRANCH   7   8
ATOM      8  C   UNL d   1     -23.938  22.686  22.332  0.00  0.00     0.259 C 
ATOM      9  O   UNL d   1     -23.220  21.705  22.382  0.00  0.00    -0.267 OA
ATOM     10  N   UNL d   1     -23.394  23.915  22.231  0.00  0.00    -0.319 N 
ATOM     11  H   UNL d   1     -23.965  24.700  22.238  0.00  0.00     0.169 HD
BRANCH  10  12
ATOM     12  C   UNL d   1     -22.006  24.059  22.115  0.00  0.00     0.096 A 
ATOM     13  C   UNL d   1     -21.426  24.231  20.866  0.00  0.00     0.064 A 
ATOM     14  C   UNL d   1     -20.055  24.378  20.756  0.00  0.00     0.026 A 
ATOM     15 CL   UNL d   1     -22.420  24.269  19.443  0.00  0.00    -0.082 Cl
ATOM     16  C   UNL d   1     -19.261  24.342  21.887  0.00  0.00     0.005 A 
ATOM     17  C   UNL d   1     -19.835  24.164  23.133  0.00  0.00     0.045 A 
ATOM     18  C   UNL d   1     -21.205  24.022  23.252  0.00  0.00     0.144 A 
ATOM     19  F   UNL d   1     -21.764  23.849  24.469  0.00  0.00    -0.204 F 
ENDBRANCH  10  12
ENDBRANCH   7   8
BRANCH   1  20
ATOM     20  O   UNL d   1     -25.529  24.053  24.223  0.00  0.00    -0.345 OA
BRANCH  20  21
ATOM     21  C   UNL d   1     -25.841  25.446  24.142  0.00  0.00     0.124 C 
ATOM     22  C   UNL d   1     -26.278  25.950  25.519  0.00  0.00     0.040 C 
BRANCH  21  23
ATOM     23  C   UNL d   1     -24.603  26.220  23.685  0.00  0.00     0.032 C 
BRANCH  23  24
ATOM     24  C   UNL d   1     -23.643  26.391  24.863  0.00  0.00    -0.002 C 
ATOM     25  C   UNL d   1     -22.397  27.148  24.401  0.00  0.00     0.005 C 
ENDBRANCH  23  24
ENDBRANCH  21  23
ENDBRANCH  20  21
ENDBRANCH   1  20
BRANCH   3  26
ATOM     26  N   UNL d   1     -29.550  22.088  22.527  0.00  0.00    -0.178 N 
ATOM     27  C   UNL d   1     -30.284  21.764  23.614  0.00  0.00     0.351 A 
ATOM     28  N   UNL d   1     -31.570  21.754  23.238  0.00  0.00    -0.280 N 
ATOM     29  O   UNL d   1     -29.857  21.527  24.730  0.00  0.00    -0.244 OA
ATOM     30  C   UNL d   1     -31.631  22.033  21.885  0.00  0.00     0.155 A 
ATOM     31  C   UNL d   1     -32.764  21.513  24.057  0.00  0.00     0.161 C 
ATOM     32  N   UNL d   1     -30.438  22.242  21.451  0.00  0.00    -0.147 NA
ATOM     33  C   UNL d   1     -32.931  22.062  21.115  0.00  0.00     0.248 C 
ATOM     34  O   UNL d   1     -33.999  22.148  22.071  0.00  0.00    -0.382 OA
ATOM     35  C   UNL d   1     -33.923  21.168  23.112  0.00  0.00     0.188 C 
ENDBRANCH   3  26
TORSDOF 7
ENDMDL
