MODEL 1
REMARK VINA RESULT:     -10.1      0.000      0.000
REMARK  8 active torsions:
REMARK  status: ('A' for Active; 'I' for Inactive)
REMARK    1  A    between atoms: C_2  and  C_3 
REMARK    2  A    between atoms: C_3  and  C_4 
REMARK    3  A    between atoms: C_4  and  O_6 
REMARK    4  A    between atoms: O_6  and  C_7 
REMARK    5  A    between atoms: C_9  and  N_10 
REMARK    6  A    between atoms: N_14  and  C_15 
REMARK    7  A    between atoms: C_23  and  C_24 
REMARK       I    between atoms: C_24  and  N_26 
REMARK    8  A    between atoms: N_26  and  C_27 
ROOT
ATOM      1  C   UNL d   1     -26.360  23.145  23.397  0.00  0.00     0.087 A 
ATOM      2  C   UNL d   1     -27.733  22.997  23.479  0.00  0.00     0.073 A 
ATOM      3  C   UNL d   1     -28.397  22.167  22.585  0.00  0.00     0.104 A 
ATOM      4  C   UNL d   1     -27.685  21.482  21.602  0.00  0.00     0.146 A 
ATOM      5  F   UNL d   1     -28.338  20.676  20.736  0.00  0.00    -0.204 F 
ATOM      6  C   UNL d   1     -26.319  21.627  21.507  0.00  0.00     0.064 A 
ATOM      7  C   UNL d   1     -25.641  22.456  22.408  0.00  0.00     0.068 A 
ENDROOT
BRANCH   7   8
ATOM      8  C   UNL d   1     -24.180  22.610  22.315  0.00  0.00     0.259 C 
ATOM      9  O   UNL d   1     -23.467  21.625  22.273  0.00  0.00    -0.267 OA
ATOM     10  N   UNL d   1     -23.632  23.840  22.276  0.00  0.00    -0.320 N 
ATOM     11  H   UNL d   1     -24.192  24.624  22.392  0.00  0.00     0.169 HD
BRANCH  10  12
ATOM     12  C   UNL d   1     -22.256  23.988  22.069  0.00  0.00     0.080 A 
ATOM     13  C   UNL d   1     -21.372  23.843  23.131  0.00  0.00     0.143 A 
ATOM     14  C   UNL d   1     -20.012  23.989  22.922  0.00  0.00     0.045 A 
ATOM     15  F   UNL d   1     -21.839  23.559  24.367  0.00  0.00    -0.204 F 
ATOM     16  C   UNL d   1     -19.534  24.280  21.657  0.00  0.00     0.004 A 
ATOM     17  C   UNL d   1     -20.412  24.431  20.599  0.00  0.00     0.009 A 
ATOM     18  C   UNL d   1     -21.771  24.280  20.800  0.00  0.00    -0.032 A 
ATOM     19  C   UNL d   1     -22.726  24.438  19.646  0.00  0.00     0.050 C 
ENDBRANCH  10  12
ENDBRANCH   7   8
BRANCH   1  20
ATOM     20  O   UNL d   1     -25.710  23.956  24.270  0.00  0.00    -0.345 OA
BRANCH  20  21
ATOM     21  C   UNL d   1     -26.045  25.345  24.239  0.00  0.00     0.124 C 
ATOM     22  C   UNL d   1     -26.381  25.820  25.654  0.00  0.00     0.040 C 
BRANCH  21  23
ATOM     23  C   UNL d   1     -24.856  26.143  23.701  0.00  0.00     0.032 C 
BRANCH  23  24
ATOM     24  C   UNL d   1     -23.766  26.218  24.773  0.00  0.00    -0.002 C 
ATOM     25  C   UNL d   1     -22.577  27.016  24.234  0.00  0.00     0.005 C 
ENDBRANCH  23  24
ENDBRANCH  21  23
ENDBRANCH  20  21
ENDBRANCH   1  20
BRANCH   3  26
ATOM     26  N   UNL d   1     -29.783  22.019  22.671  0.00  0.00    -0.178 N 
ATOM     27  C   UNL d   1     -30.674  22.234  21.680  0.00  0.00     0.351 A 
ATOM     28  N   UNL d   1     -31.900  21.975  22.177  0.00  0.00    -0.280 N 
ATOM     29  O   UNL d   1     -30.418  22.594  20.545  0.00  0.00    -0.244 OA
ATOM     30  C   UNL d   1     -31.764  21.604  23.493  0.00  0.00     0.127 A 
ATOM     31  N   UNL d   1     -30.508  21.625  23.805  0.00  0.00    -0.149 NA
ATOM     32  C   UNL d   1     -32.892  21.233  24.420  0.00  0.00     0.093 C 
BRANCH  28  33
ATOM     33  C   UNL d   1     -33.163  22.076  21.441  0.00  0.00     0.088 C 
ATOM     34  C   UNL d   1     -33.724  20.673  21.198  0.00  0.00     0.032 C 
ATOM     35  C   UNL d   1     -34.167  22.891  22.260  0.00  0.00     0.032 C 
ENDBRANCH  28  33
ENDBRANCH   3  26
TORSDOF 8
ENDMDL
