MODEL 1
REMARK VINA RESULT:     -11.1      0.000      0.000
REMARK  7 active torsions:
REMARK  status: ('A' for Active; 'I' for Inactive)
REMARK    1  A    between atoms: C_2  and  C_3 
REMARK    2  A    between atoms: C_9  and  N_10 
REMARK       I    between atoms: N_10  and  C_11 
REMARK    3  A    between atoms: C_11  and  C_13 
REMARK    4  A    between atoms: C_17  and  N_18 
REMARK    5  A    between atoms: C_29  and  O_30 
REMARK    6  A    between atoms: O_30  and  C_31 
REMARK    7  A    between atoms: C_31  and  C_33 
ROOT
ATOM      1  C   UNL d   1     -24.185  24.600  23.619  0.00  0.00     0.068 A 
ATOM      2  C   UNL d   1     -25.084  25.119  24.559  0.00  0.00     0.064 A 
ATOM      3  C   UNL d   1     -26.331  24.554  24.702  0.00  0.00     0.146 A 
ATOM      4  F   UNL d   1     -27.200  25.060  25.604  0.00  0.00    -0.204 F 
ATOM      5  C   UNL d   1     -26.698  23.458  23.921  0.00  0.00     0.104 A 
ATOM      6  C   UNL d   1     -25.813  22.937  22.988  0.00  0.00     0.073 A 
ATOM      7  C   UNL d   1     -24.559  23.501  22.832  0.00  0.00     0.087 A 
ENDROOT
BRANCH   1   8
ATOM      8  C   UNL d   1     -22.852  25.205  23.459  0.00  0.00     0.259 C 
ATOM      9  N   UNL d   1     -21.780  24.640  24.051  0.00  0.00    -0.321 N 
ATOM     10  H   UNL d   1     -21.868  23.783  24.496  0.00  0.00     0.169 HD
ATOM     11  O   UNL d   1     -22.717  26.214  22.793  0.00  0.00    -0.267 OA
BRANCH   9  12
ATOM     12  C   UNL d   1     -20.542  25.290  24.024  0.00  0.00     0.063 A 
ATOM     13  C   UNL d   1     -20.236  26.243  24.986  0.00  0.00    -0.030 A 
ATOM     14  C   UNL d   1     -19.009  26.879  24.960  0.00  0.00     0.009 A 
ATOM     15  C   UNL d   1     -18.093  26.577  23.969  0.00  0.00     0.002 A 
ATOM     16  C   UNL d   1     -18.398  25.634  23.006  0.00  0.00     0.026 A 
ATOM     17  C   UNL d   1     -19.619  24.989  23.029  0.00  0.00     0.061 A 
ATOM     18 CL   UNL d   1     -20.000  23.804  21.819  0.00  0.00    -0.082 Cl
BRANCH  13  19
ATOM     19  C   UNL d   1     -21.236  26.578  26.062  0.00  0.00     0.036 C 
ATOM     20  C   UNL d   1     -21.590  28.065  25.984  0.00  0.00     0.010 C 
ENDBRANCH  13  19
ENDBRANCH   9  12
ENDBRANCH   1   8
BRANCH   7  21
ATOM     21  O   UNL d   1     -23.693  22.993  21.919  0.00  0.00    -0.336 OA
BRANCH  21  22
ATOM     22  C   UNL d   1     -23.974  23.253  20.543  0.00  0.00     0.232 C 
ATOM     23  C   UNL d   1     -22.690  23.691  19.834  0.00  0.00     0.049 C 
BRANCH  22  24
ATOM     24  C   UNL d   1     -24.512  21.981  19.883  0.00  0.00     0.413 C 
ATOM     25  F   UNL d   1     -25.899  22.088  19.726  0.00  0.00    -0.168 F 
ATOM     26  F   UNL d   1     -23.913  21.817  18.630  0.00  0.00    -0.168 F 
ATOM     27  F   UNL d   1     -24.218  20.877  20.689  0.00  0.00    -0.168 F 
ENDBRANCH  22  24
ENDBRANCH  21  22
ENDBRANCH   7  21
BRANCH   5  28
ATOM     28  N   UNL d   1     -27.963  22.887  24.076  0.00  0.00    -0.178 N 
ATOM     29  C   UNL d   1     -28.382  22.139  25.121  0.00  0.00     0.351 A 
ATOM     30  N   UNL d   1     -29.664  21.813  24.892  0.00  0.00    -0.284 N 
ATOM     31  O   UNL d   1     -27.718  21.821  26.091  0.00  0.00    -0.244 OA
ATOM     32  C   UNL d   1     -30.033  22.332  23.668  0.00  0.00     0.131 A 
ATOM     33  C   UNL d   1     -30.562  21.057  25.772  0.00  0.00     0.135 C 
ATOM     34  N   UNL d   1     -29.033  22.979  23.173  0.00  0.00    -0.149 NA
ATOM     35  C   UNL d   1     -31.398  22.136  23.050  0.00  0.00     0.081 C 
ATOM     36  C   UNL d   1     -32.364  21.705  24.162  0.00  0.00     0.009 C 
ATOM     37  C   UNL d   1     -31.743  20.540  24.941  0.00  0.00     0.021 C 
ENDBRANCH   5  28
TORSDOF 7
ENDMDL
