MODEL 1
REMARK VINA RESULT:      -9.2      0.000      0.000
REMARK  3 active torsions:
REMARK  status: ('A' for Active; 'I' for Inactive)
REMARK    1  A    between atoms: C_4  and  C_5 
REMARK    2  A    between atoms: C_5  and  C_6 
REMARK    3  A    between atoms: C_7  and  O_8 
ROOT
ATOM      1  C   UNL d   1     -29.018  22.248  24.038  0.00  0.00     0.033 A 
ATOM      2  C   UNL d   1     -29.193  21.581  25.198  0.00  0.00     0.127 A 
ATOM      3  C   UNL d   1     -30.503  20.973  25.532  0.00  0.00     0.216 A 
ATOM      4  O   UNL d   1     -30.650  20.374  26.578  0.00  0.00    -0.284 OA
ATOM      5  C   UNL d   1     -31.629  21.100  24.583  0.00  0.00     0.031 A 
ATOM      6  C   UNL d   1     -32.869  20.539  24.869  0.00  0.00     0.016 A 
ATOM      7  C   UNL d   1     -33.910  20.670  23.964  0.00  0.00     0.001 A 
ATOM      8  C   UNL d   1     -33.722  21.354  22.778  0.00  0.00     0.001 A 
ATOM      9  C   UNL d   1     -32.492  21.919  22.479  0.00  0.00     0.016 A 
ATOM     10  C   UNL d   1     -31.439  21.796  23.376  0.00  0.00     0.029 A 
ATOM     11  C   UNL d   1     -30.115  22.385  23.076  0.00  0.00     0.192 A 
ATOM     12  O   UNL d   1     -29.939  22.989  22.036  0.00  0.00    -0.287 OA
ENDROOT
BRANCH   1  13
ATOM     13  C   UNL d   1     -27.674  22.855  23.726  0.00  0.00     0.073 C 
BRANCH  13  14
ATOM     14  C   UNL d   1     -26.968  22.010  22.698  0.00  0.00    -0.020 C 
ATOM     15  C   UNL d   1     -25.720  22.262  22.388  0.00  0.00    -0.091 C 
ATOM     16  C   UNL d   1     -24.952  23.309  23.152  0.00  0.00     0.042 C 
ATOM     17  C   UNL d   1     -25.054  21.504  21.269  0.00  0.00     0.042 C 
ENDBRANCH  13  14
ENDBRANCH   1  13
BRANCH   2  18
ATOM     18  O   UNL d   1     -28.160  21.465  26.066  0.00  0.00    -0.356 OA
ATOM     19  H   UNL d   1     -28.081  22.206  26.683  0.00  0.00     0.218 HD
ENDBRANCH   2  18
TORSDOF 3
ENDMDL
