MODEL 1
REMARK VINA RESULT:      -8.6      0.000      0.000
REMARK  7 active torsions:
REMARK  status: ('A' for Active; 'I' for Inactive)
REMARK    1  A    between atoms: C_2  and  O_3 
REMARK    2  A    between atoms: C_2  and  C_34 
REMARK    3  A    between atoms: O_3  and  C_4 
REMARK    4  A    between atoms: C_6  and  N_7 
REMARK    5  A    between atoms: C_20  and  C_21 
REMARK       I    between atoms: C_21  and  N_23 
REMARK    6  A    between atoms: N_23  and  C_24 
REMARK    7  A    between atoms: C_28  and  C_29 
ROOT
ATOM      1  C   UNL d   1     -18.903  26.511  24.714  0.00  0.00     0.087 A 
ATOM      2  C   UNL d   1     -18.121  26.836  25.810  0.00  0.00     0.073 A 
ATOM      3  C   UNL d   1     -18.653  26.755  27.091  0.00  0.00     0.104 A 
ATOM      4  C   UNL d   1     -19.972  26.346  27.278  0.00  0.00     0.146 A 
ATOM      5  F   UNL d   1     -20.482  26.269  28.527  0.00  0.00    -0.204 F 
ATOM      6  C   UNL d   1     -20.759  26.026  26.195  0.00  0.00     0.064 A 
ATOM      7  C   UNL d   1     -20.230  26.100  24.901  0.00  0.00     0.068 A 
ENDROOT
BRANCH   7   8
ATOM      8  C   UNL d   1     -21.067  25.753  23.740  0.00  0.00     0.259 C 
ATOM      9  O   UNL d   1     -21.972  26.492  23.401  0.00  0.00    -0.267 OA
ATOM     10  N   UNL d   1     -20.827  24.620  23.051  0.00  0.00    -0.323 N 
ATOM     11  H   UNL d   1     -20.059  24.071  23.273  0.00  0.00     0.169 HD
BRANCH  10  12
ATOM     12  C   UNL d   1     -21.684  24.238  22.013  0.00  0.00     0.035 A 
ATOM     13  C   UNL d   1     -22.777  23.424  22.278  0.00  0.00     0.045 A 
ATOM     14  C   UNL d   1     -23.622  23.049  21.252  0.00  0.00     0.050 A 
ATOM     15  C   UNL d   1     -23.380  23.485  19.962  0.00  0.00     0.016 A 
ATOM     16  C   UNL d   1     -22.293  24.296  19.695  0.00  0.00     0.003 A 
ATOM     17  C   UNL d   1     -21.448  24.680  20.718  0.00  0.00     0.029 A 
BRANCH  14  18
ATOM     18  C   UNL d   1     -24.809  22.166  21.538  0.00  0.00     0.417 C 
ATOM     19  F   UNL d   1     -24.370  20.862  21.793  0.00  0.00    -0.166 F 
ATOM     20  F   UNL d   1     -25.494  22.653  22.657  0.00  0.00    -0.166 F 
ATOM     21  F   UNL d   1     -25.666  22.162  20.433  0.00  0.00    -0.166 F 
ENDBRANCH  14  18
ENDBRANCH  10  12
ENDBRANCH   7   8
BRANCH   1  22
ATOM     22  O   UNL d   1     -18.384  26.590  23.463  0.00  0.00    -0.345 OA
BRANCH  22  23
ATOM     23  C   UNL d   1     -16.973  26.411  23.332  0.00  0.00     0.129 C 
ATOM     24  C   UNL d   1     -16.692  25.157  22.503  0.00  0.00     0.040 C 
BRANCH  23  25
ATOM     25  C   UNL d   1     -16.367  27.630  22.633  0.00  0.00     0.015 C 
ATOM     26  C   UNL d   1     -16.146  28.747  23.655  0.00  0.00     0.007 C 
ATOM     27  C   UNL d   1     -15.540  29.966  22.956  0.00  0.00     0.000 C 
ATOM     28  C   UNL d   1     -14.200  29.577  22.327  0.00  0.00     0.000 C 
ATOM     29  C   UNL d   1     -14.420  28.461  21.305  0.00  0.00     0.000 C 
ATOM     30  C   UNL d   1     -15.026  27.242  22.005  0.00  0.00     0.007 C 
ENDBRANCH  23  25
ENDBRANCH  22  23
ENDBRANCH   1  22
BRANCH   3  31
ATOM     31  N   UNL d   1     -17.861  27.083  28.193  0.00  0.00    -0.178 N 
ATOM     32  C   UNL d   1     -17.753  28.301  28.767  0.00  0.00     0.351 A 
ATOM     33  N   UNL d   1     -16.917  28.181  29.811  0.00  0.00    -0.284 N 
ATOM     34  O   UNL d   1     -18.311  29.322  28.404  0.00  0.00    -0.244 OA
ATOM     35  C   UNL d   1     -16.472  26.876  29.861  0.00  0.00     0.131 A 
ATOM     36  C   UNL d   1     -16.534  29.220  30.773  0.00  0.00     0.135 C 
ATOM     37  N   UNL d   1     -17.036  26.207  28.915  0.00  0.00    -0.149 NA
ATOM     38  C   UNL d   1     -15.474  26.369  30.877  0.00  0.00     0.081 C 
ATOM     39  C   UNL d   1     -15.433  27.367  32.041  0.00  0.00     0.009 C 
ATOM     40  C   UNL d   1     -15.248  28.782  31.482  0.00  0.00     0.021 C 
ENDBRANCH   3  31
TORSDOF 7
ENDMDL
