MODEL 1
REMARK VINA RESULT:      -9.3      0.000      0.000
REMARK  10 active torsions:
REMARK  status: ('A' for Active; 'I' for Inactive)
REMARK    1  A    between atoms: C_2  and  C_3 
REMARK    2  A    between atoms: C_3  and  C_4 
REMARK    3  A    between atoms: C_4  and  O_6 
REMARK    4  A    between atoms: O_6  and  C_7 
REMARK    5  A    between atoms: C_9  and  N_10 
REMARK    6  A    between atoms: C_12  and  C_13 
REMARK    7  A    between atoms: C_23  and  C_24 
REMARK       I    between atoms: C_24  and  N_26 
REMARK    8  A    between atoms: N_26  and  CA_27 
REMARK    9  A    between atoms: CA_27  and  C_29 
REMARK   10  A    between atoms: C_29  and  O_30 
ROOT
ATOM      1  C   UNK d   0     -29.103  21.823  23.642  0.00  0.00     0.087 A 
ATOM      2  C   UNK d   0     -27.958  22.323  23.045  0.00  0.00     0.073 A 
ATOM      3  C   UNK d   0     -26.880  22.712  23.829  0.00  0.00     0.104 A 
ATOM      4  C   UNK d   0     -26.944  22.599  25.217  0.00  0.00     0.146 A 
ATOM      5  F   UNK d   0     -25.891  22.980  25.973  0.00  0.00    -0.204 F 
ATOM      6  C   UNK d   0     -28.078  22.103  25.820  0.00  0.00     0.064 A 
ATOM      7  C   UNK d   0     -29.171  21.714  25.038  0.00  0.00     0.068 A 
ENDROOT
BRANCH   3   8
ATOM      8  N   UNK d   0     -25.727  23.216  23.224  0.00  0.00    -0.178 N 
ATOM      9  C   UNK d   0     -25.072  22.676  22.174  0.00  0.00     0.351 A 
ATOM     10  N   UNK d   0     -24.019  23.472  21.903  0.00  0.00    -0.288 N 
ATOM     11  O   UNK d   0     -25.379  21.658  21.581  0.00  0.00    -0.244 OA
ATOM     12  C   UNK d   0     -24.018  24.510  22.802  0.00  0.00     0.134 A 
ATOM     13  C   UNK d   0     -23.037  23.263  20.836  0.00  0.00     0.162 C 
ATOM     14  N   UNK d   0     -25.030  24.374  23.598  0.00  0.00    -0.149 NA
BRANCH  12  15
ATOM     15  C   UNK d   0     -23.006  25.624  22.855  0.00  0.00     0.049 C 
ATOM     16  C   UNK d   0     -23.669  26.891  23.400  0.00  0.00     0.018 C 
ATOM     17  C   UNK d   0     -21.849  25.220  23.771  0.00  0.00     0.018 C 
ENDBRANCH  12  15
ENDBRANCH   3   8
BRANCH   1  18
ATOM     18  O   UNK d   0     -30.158  21.442  22.877  0.00  0.00    -0.345 OA
BRANCH  18  19
ATOM     19  C   UNK d   0     -30.877  22.477  22.203  0.00  0.00     0.124 C 
ATOM     20  C   UNK d   0     -30.632  22.367  20.696  0.00  0.00     0.040 C 
BRANCH  19  21
ATOM     21  C   UNK d   0     -32.371  22.330  22.489  0.00  0.00     0.032 C 
BRANCH  21  22
ATOM     22  C   UNK d   0     -33.074  21.761  21.254  0.00  0.00    -0.002 C 
ATOM     23  C   UNK d   0     -33.876  20.519  21.649  0.00  0.00     0.005 C 
ENDBRANCH  21  22
ENDBRANCH  19  21
ENDBRANCH  18  19
ENDBRANCH   1  18
BRANCH   7  24
ATOM     24  C   UNK d   0     -30.389  21.187  25.680  0.00  0.00     0.254 C 
ATOM     25  O   UNK d   0     -31.087  21.920  26.354  0.00  0.00    -0.268 OA
ATOM     26  N   ALA d   1     -30.728  19.892  25.519  0.00  0.00    -0.350 N 
ATOM     27  H   ALA d   1     -30.171  19.308  24.982  0.00  0.00     0.163 HD
BRANCH  26  28
ATOM     28  CA  ALA d   1     -31.938  19.368  26.157  0.00  0.00     0.104 C 
ATOM     29  CB  ALA d   1     -31.674  17.948  26.662  0.00  0.00     0.034 C 
BRANCH  28  30
ATOM     30  C   ALA d   1     -33.080  19.344  25.140  0.00  0.00     0.189 C 
BRANCH  30  31
ATOM     31  O   ALA d   1     -33.775  20.592  25.175  0.00  0.00    -0.399 OA
ATOM     32  H   ALA d   1     -34.485  20.666  24.523  0.00  0.00     0.209 HD
ENDBRANCH  30  31
ENDBRANCH  28  30
ENDBRANCH  26  28
ENDBRANCH   7  24
TORSDOF 10
ENDMDL
