MODEL 1
REMARK VINA RESULT:     -10.3      0.000      0.000
REMARK  5 active torsions:
REMARK  status: ('A' for Active; 'I' for Inactive)
REMARK    1  A    between atoms: C_4  and  C_5 
REMARK    2  A    between atoms: C_7  and  C_8 
REMARK    3  A    between atoms: C_8  and  O_10 
REMARK    4  A    between atoms: C_22  and  O_23 
REMARK    5  A    between atoms: O_23  and  C_24 
ROOT
ATOM      1  C   UNL d   1     -23.583  21.768  22.337  0.00  0.00     0.051 C 
ATOM      2  C   UNL d   1     -24.669  22.657  22.884  0.00  0.00    -0.027 A 
ATOM      3  C   UNL d   1     -25.978  22.227  22.881  0.00  0.00     0.023 A 
ATOM      4  C   UNL d   1     -26.983  23.050  23.388  0.00  0.00    -0.006 A 
ATOM      5  C   UNL d   1     -26.660  24.309  23.893  0.00  0.00     0.023 A 
ATOM      6  C   UNL d   1     -25.349  24.733  23.899  0.00  0.00    -0.027 A 
ATOM      7  C   UNL d   1     -24.999  26.091  24.448  0.00  0.00     0.051 C 
ATOM      8  C   UNL d   1     -24.350  23.910  23.393  0.00  0.00     0.088 A 
ENDROOT
BRANCH   4   9
ATOM      9  C   UNL d   1     -28.392  22.590  23.385  0.00  0.00     0.069 A 
ATOM     10  N   UNL d   1     -29.086  22.675  22.269  0.00  0.00    -0.247 NA
ATOM     11  C   UNL d   1     -30.358  22.282  22.188  0.00  0.00     0.069 A 
ATOM     12  C   UNL d   1     -31.010  21.751  23.330  0.00  0.00     0.013 A 
ATOM     13  C   UNL d   1     -31.073  22.385  20.980  0.00  0.00     0.035 A 
ATOM     14  C   UNL d   1     -30.259  21.645  24.582  0.00  0.00     0.052 A 
ATOM     15  C   UNL d   1     -32.343  21.339  23.241  0.00  0.00     0.057 A 
ATOM     16  C   UNL d   1     -28.941  22.079  24.572  0.00  0.00     0.051 A 
ATOM     17  C   UNL d   1     -33.007  21.452  22.053  0.00  0.00     0.117 A 
ATOM     18  F   UNL d   1     -34.295  21.054  21.967  0.00  0.00    -0.206 F 
ATOM     19  C   UNL d   1     -32.370  21.976  20.927  0.00  0.00     0.044 A 
BRANCH  14  20
ATOM     20  C   UNL d   1     -30.880  21.100  25.806  0.00  0.00     0.177 C 
ATOM     21  O   UNL d   1     -31.644  21.785  26.456  0.00  0.00    -0.646 OA
BRANCH  20  22
ATOM     22  O   UNL d   1     -30.599  19.843  26.202  0.00  0.00    -0.773 OA
ATOM     23  H   UNL d   1     -30.157  19.740  27.056  0.00  0.00     0.167 HD
ENDBRANCH  20  22
ENDBRANCH  14  20
ENDBRANCH   4   9
BRANCH   8  24
ATOM     24  O   UNL d   1     -23.059  24.332  23.395  0.00  0.00    -0.310 OA
BRANCH  24  25
ATOM     25  C   UNL d   1     -22.449  24.524  22.195  0.00  0.00     0.076 A 
ATOM     26  C   UNL d   1     -23.173  25.013  21.118  0.00  0.00     0.037 A 
ATOM     27  C   UNL d   1     -22.550  25.209  19.900  0.00  0.00     0.003 A 
ATOM     28  C   UNL d   1     -21.207  24.917  19.755  0.00  0.00     0.000 A 
ATOM     29  C   UNL d   1     -20.482  24.429  20.828  0.00  0.00     0.003 A 
ATOM     30  C   UNL d   1     -21.099  24.237  22.049  0.00  0.00     0.037 A 
ENDBRANCH  24  25
ENDBRANCH   8  24
TORSDOF 5
ENDMDL
