MODEL 1
REMARK VINA RESULT:      -9.6      0.000      0.000
REMARK  7 active torsions:
REMARK  status: ('A' for Active; 'I' for Inactive)
REMARK    1  A    between atoms: O_2  and  C_3 
REMARK    2  A    between atoms: C_9  and  N_10 
REMARK       I    between atoms: N_10  and  C_11 
REMARK    3  A    between atoms: C_11  and  C_13 
REMARK    4  A    between atoms: C_17  and  N_18 
REMARK    5  A    between atoms: C_29  and  O_30 
REMARK    6  A    between atoms: O_30  and  C_31 
REMARK    7  A    between atoms: C_31  and  C_33 
ROOT
ATOM      1  C   UNL d   1     -24.047  24.565  23.603  0.00  0.00     0.067 A 
ATOM      2  C   UNL d   1     -24.912  25.076  24.577  0.00  0.00     0.046 A 
ATOM      3  C   UNL d   1     -26.154  24.513  24.756  0.00  0.00     0.064 A 
ATOM      4 CL   UNL d   1     -27.228  25.154  25.960  0.00  0.00    -0.082 Cl
ATOM      5  C   UNL d   1     -26.550  23.426  23.979  0.00  0.00     0.088 A 
ATOM      6  C   UNL d   1     -25.699  22.911  23.011  0.00  0.00     0.071 A 
ATOM      7  C   UNL d   1     -24.449  23.474  22.817  0.00  0.00     0.087 A 
ENDROOT
BRANCH   1   8
ATOM      8  C   UNL d   1     -22.719  25.169  23.403  0.00  0.00     0.259 C 
ATOM      9  N   UNL d   1     -21.637  24.629  23.998  0.00  0.00    -0.319 N 
ATOM     10  H   UNL d   1     -21.718  23.796  24.488  0.00  0.00     0.169 HD
ATOM     11  O   UNL d   1     -22.598  26.156  22.701  0.00  0.00    -0.267 OA
BRANCH   9  12
ATOM     12  C   UNL d   1     -20.395  25.270  23.907  0.00  0.00     0.094 A 
ATOM     13  C   UNL d   1     -20.036  26.253  24.829  0.00  0.00     0.191 A 
ATOM     14  N   UNL d   1     -18.862  26.855  24.745  0.00  0.00    -0.235 NA
ATOM     15  C   UNL d   1     -17.997  26.561  23.793  0.00  0.00     0.120 A 
ATOM     16  C   UNL d   1     -18.285  25.603  22.843  0.00  0.00     0.028 A 
ATOM     17  C   UNL d   1     -19.503  24.941  22.892  0.00  0.00    -0.029 A 
ATOM     18  C   UNL d   1     -19.852  23.888  21.870  0.00  0.00     0.050 C 
BRANCH  13  19
ATOM     19  O   UNL d   1     -20.897  26.591  25.822  0.00  0.00    -0.338 OA
ATOM     20  C   UNL d   1     -21.561  27.851  25.706  0.00  0.00     0.211 C 
ENDBRANCH  13  19
ENDBRANCH   9  12
ENDBRANCH   1   8
BRANCH   7  21
ATOM     21  O   UNL d   1     -23.617  22.972  21.871  0.00  0.00    -0.336 OA
BRANCH  21  22
ATOM     22  C   UNL d   1     -23.928  23.271  20.508  0.00  0.00     0.232 C 
ATOM     23  C   UNL d   1     -22.652  23.687  19.774  0.00  0.00     0.049 C 
BRANCH  22  24
ATOM     24  C   UNL d   1     -24.523  22.030  19.838  0.00  0.00     0.413 C 
ATOM     25  F   UNL d   1     -25.919  22.120  19.847  0.00  0.00    -0.168 F 
ATOM     26  F   UNL d   1     -24.068  21.952  18.518  0.00  0.00    -0.168 F 
ATOM     27  F   UNL d   1     -24.124  20.886  20.538  0.00  0.00    -0.168 F 
ENDBRANCH  22  24
ENDBRANCH  21  22
ENDBRANCH   7  21
BRANCH   5  28
ATOM     28  N   UNL d   1     -27.811  22.856  24.171  0.00  0.00    -0.179 N 
ATOM     29  C   UNL d   1     -28.202  22.116  25.231  0.00  0.00     0.351 A 
ATOM     30  N   UNL d   1     -29.490  21.790  25.039  0.00  0.00    -0.284 N 
ATOM     31  O   UNL d   1     -27.513  21.804  26.185  0.00  0.00    -0.244 OA
ATOM     32  C   UNL d   1     -29.890  22.300  23.821  0.00  0.00     0.131 A 
ATOM     33  C   UNL d   1     -30.366  21.040  25.947  0.00  0.00     0.135 C 
ATOM     34  N   UNL d   1     -28.904  22.944  23.296  0.00  0.00    -0.149 NA
ATOM     35  C   UNL d   1     -31.272  22.103  23.242  0.00  0.00     0.081 C 
ATOM     36  C   UNL d   1     -32.209  21.680  24.381  0.00  0.00     0.009 C 
ATOM     37  C   UNL d   1     -31.568  20.519  25.150  0.00  0.00     0.021 C 
ENDBRANCH   5  28
TORSDOF 7
ENDMDL
