MODEL 1
REMARK VINA RESULT:     -10.2      0.000      0.000
REMARK  7 active torsions:
REMARK  status: ('A' for Active; 'I' for Inactive)
REMARK    1  A    between atoms: O_2  and  C_3 
REMARK    2  A    between atoms: C_9  and  N_10 
REMARK       I    between atoms: N_10  and  C_11 
REMARK    3  A    between atoms: C_11  and  C_13 
REMARK    4  A    between atoms: C_17  and  N_18 
REMARK    5  A    between atoms: C_30  and  O_31 
REMARK    6  A    between atoms: O_31  and  C_32 
REMARK    7  A    between atoms: C_32  and  C_34 
ROOT
ATOM      1  C   UNL d   1     -24.065  24.679  23.563  0.00  0.00     0.068 A 
ATOM      2  C   UNL d   1     -25.031  25.142  24.464  0.00  0.00     0.064 A 
ATOM      3  C   UNL d   1     -26.261  24.527  24.529  0.00  0.00     0.146 A 
ATOM      4  F   UNL d   1     -27.193  24.975  25.400  0.00  0.00    -0.204 F 
ATOM      5  C   UNL d   1     -26.548  23.445  23.698  0.00  0.00     0.104 A 
ATOM      6  C   UNL d   1     -25.597  22.979  22.801  0.00  0.00     0.073 A 
ATOM      7  C   UNL d   1     -24.359  23.593  22.725  0.00  0.00     0.087 A 
ENDROOT
BRANCH   1   8
ATOM      8  C   UNL d   1     -22.747  25.333  23.492  0.00  0.00     0.259 C 
ATOM      9  N   UNL d   1     -21.663  24.719  24.005  0.00  0.00    -0.319 N 
ATOM     10  H   UNL d   1     -21.733  23.813  24.345  0.00  0.00     0.169 HD
ATOM     11  O   UNL d   1     -22.639  26.426  22.972  0.00  0.00    -0.267 OA
BRANCH   9  12
ATOM     12  C   UNL d   1     -20.433  25.389  24.046  0.00  0.00     0.094 A 
ATOM     13  C   UNL d   1     -20.158  26.302  25.064  0.00  0.00     0.191 A 
ATOM     14  N   UNL d   1     -18.998  26.934  25.104  0.00  0.00    -0.235 NA
ATOM     15  C   UNL d   1     -18.064  26.729  24.193  0.00  0.00     0.120 A 
ATOM     16  C   UNL d   1     -18.264  25.836  23.159  0.00  0.00     0.028 A 
ATOM     17  C   UNL d   1     -19.469  25.154  23.074  0.00  0.00    -0.029 A 
ATOM     18  C   UNL d   1     -19.724  24.175  21.956  0.00  0.00     0.050 C 
BRANCH  13  19
ATOM     19  O   UNL d   1     -21.088  26.544  26.023  0.00  0.00    -0.338 OA
ATOM     20  C   UNL d   1     -21.541  27.891  26.163  0.00  0.00     0.211 C 
ENDBRANCH  13  19
ENDBRANCH   9  12
ENDBRANCH   1   8
BRANCH   7  21
ATOM     21  O   UNL d   1     -23.429  23.142  21.845  0.00  0.00    -0.336 OA
BRANCH  21  22
ATOM     22  C   UNL d   1     -23.693  23.354  20.457  0.00  0.00     0.232 C 
ATOM     23  C   UNL d   1     -22.391  23.712  19.738  0.00  0.00     0.049 C 
BRANCH  22  24
ATOM     24  C   UNL d   1     -24.278  22.078  19.849  0.00  0.00     0.413 C 
ATOM     25  F   UNL d   1     -25.642  22.262  19.601  0.00  0.00    -0.168 F 
ATOM     26  F   UNL d   1     -23.620  21.789  18.648  0.00  0.00    -0.168 F 
ATOM     27  F   UNL d   1     -24.106  21.014  20.742  0.00  0.00    -0.168 F 
ENDBRANCH  22  24
ENDBRANCH  21  22
ENDBRANCH   7  21
BRANCH   5  28
ATOM     28  N   UNL d   1     -27.799  22.826  23.769  0.00  0.00    -0.178 N 
ATOM     29  C   UNL d   1     -28.254  22.054  24.783  0.00  0.00     0.351 A 
ATOM     30  N   UNL d   1     -29.491  21.664  24.463  0.00  0.00    -0.282 N 
ATOM     31  O   UNL d   1     -27.648  21.770  25.801  0.00  0.00    -0.244 OA
ATOM     32  C   UNL d   1     -29.808  22.192  23.218  0.00  0.00     0.155 A 
ATOM     33  C   UNL d   1     -30.431  20.825  25.219  0.00  0.00     0.137 C 
ATOM     34  N   UNL d   1     -28.812  22.883  22.798  0.00  0.00    -0.147 NA
ATOM     35  C   UNL d   1     -31.142  21.933  22.548  0.00  0.00     0.248 C 
ATOM     36  O   UNL d   1     -32.154  22.551  23.350  0.00  0.00    -0.384 OA
ATOM     37  C   UNL d   1     -32.615  21.812  24.461  0.00  0.00     0.169 C 
ATOM     38  C   UNL d   1     -31.631  21.701  25.602  0.00  0.00     0.046 C 
ENDBRANCH   5  28
TORSDOF 7
ENDMDL
