MODEL 1
REMARK VINA RESULT:     -11.0      0.000      0.000
REMARK  5 active torsions:
REMARK  status: ('A' for Active; 'I' for Inactive)
REMARK    1  A    between atoms: C_2  and  O_3 
REMARK    2  A    between atoms: C_2  and  C_4 
REMARK    3  A    between atoms: C_5  and  C_6 
REMARK       I    between atoms: C_6  and  N_8 
REMARK    4  A    between atoms: N_8  and  C_9 
REMARK    5  A    between atoms: C_12  and  C_13 
ROOT
ATOM      1  C   UNL d   1     -27.880  22.153  23.357  0.00  0.00     0.057 A 
ATOM      2  C   UNL d   1     -27.410  22.927  24.412  0.00  0.00     0.032 A 
ATOM      3  C   UNL d   1     -26.140  23.460  24.365  0.00  0.00     0.014 A 
ATOM      4  C   UNL d   1     -25.328  23.228  23.256  0.00  0.00    -0.024 A 
ATOM      5  C   UNL d   1     -25.797  22.447  22.201  0.00  0.00     0.038 A 
ATOM      6  C   UNL d   1     -27.069  21.915  22.252  0.00  0.00     0.061 A 
ATOM      7 CL   UNL d   1     -27.658  20.948  20.936  0.00  0.00    -0.082 Cl
ENDROOT
BRANCH   1   8
ATOM      8  N   UNL d   1     -29.168  21.614  23.406  0.00  0.00    -0.322 N 
ATOM      9  C   UNL d   1     -30.204  22.296  22.880  0.00  0.00     0.253 C 
ATOM     10  O   UNL d   1     -30.006  23.331  22.274  0.00  0.00    -0.268 OA
ATOM     11  H   UNL d   1     -29.316  20.749  23.820  0.00  0.00     0.169 HD
BRANCH   9  12
ATOM     12  C   UNL d   1     -31.580  21.787  23.041  0.00  0.00     0.023 C 
ATOM     13  C   UNL d   1     -32.082  21.291  24.181  0.00  0.00     0.027 C 
ATOM     14  C   UNL d   1     -33.518  20.863  23.985  0.00  0.00     0.046 C 
ATOM     15  C   UNL d   1     -33.702  20.772  22.453  0.00  0.00     0.010 C 
ATOM     16  C   UNL d   1     -32.621  21.758  21.946  0.00  0.00     0.045 C 
BRANCH  13  17
ATOM     17  C   UNL d   1     -31.337  21.178  25.448  0.00  0.00     0.172 C 
ATOM     18  O   UNL d   1     -31.487  22.013  26.317  0.00  0.00    -0.646 OA
BRANCH  17  19
ATOM     19  O   UNL d   1     -30.490  20.148  25.642  0.00  0.00    -0.773 OA
ATOM     20  H   UNL d   1     -30.516  19.430  24.994  0.00  0.00     0.167 HD
ENDBRANCH  17  19
ENDBRANCH  13  17
ENDBRANCH   9  12
ENDBRANCH   1   8
BRANCH   4  21
ATOM     21  C   UNL d   1     -23.962  23.807  23.201  0.00  0.00    -0.026 A 
ATOM     22  C   UNL d   1     -22.853  22.970  23.106  0.00  0.00     0.013 A 
ATOM     23  C   UNL d   1     -21.585  23.513  23.056  0.00  0.00     0.020 A 
ATOM     24  C   UNL d   1     -21.415  24.886  23.099  0.00  0.00     0.011 A 
ATOM     25  C   UNL d   1     -22.514  25.721  23.193  0.00  0.00     0.020 A 
ATOM     26 BR   UNL d   1     -19.674  25.623  23.029  0.00  0.00    -0.051 Br
ATOM     27  C   UNL d   1     -23.787  25.189  23.238  0.00  0.00     0.013 A 
ENDBRANCH   4  21
TORSDOF 5
ENDMDL
