MODEL 1
REMARK VINA RESULT:     -10.8      0.000      0.000
REMARK  7 active torsions:
REMARK  status: ('A' for Active; 'I' for Inactive)
REMARK    1  A    between atoms: C_2  and  O_3 
REMARK    2  A    between atoms: O_3  and  C_4 
REMARK    3  A    between atoms: C_8  and  C_9 
REMARK    4  A    between atoms: C_12  and  N_13 
REMARK    5  A    between atoms: N_13  and  C_14 
REMARK    6  A    between atoms: C_20  and  C_21 
REMARK    7  A    between atoms: C_21  and  O_23 
ROOT
ATOM      1  C   UNL d   1     -24.634  23.349  22.557  0.00  0.00     0.072 A 
ATOM      2  N   UNL d   1     -25.187  24.138  23.469  0.00  0.00    -0.258 NA
ATOM      3  C   UNL d   1     -26.338  23.841  24.033  0.00  0.00     0.146 A 
ATOM      4  C   UNL d   1     -27.022  22.680  23.689  0.00  0.00     0.050 A 
ATOM      5  C   UNL d   1     -26.475  21.828  22.731  0.00  0.00     0.040 A 
ATOM      6  C   UNL d   1     -25.260  22.168  22.163  0.00  0.00    -0.030 A 
ATOM      7  C   UNL d   1     -24.626  21.277  21.127  0.00  0.00     0.050 C 
ENDROOT
BRANCH   4   8
ATOM      8  N   UNL d   1     -28.244  22.374  24.292  0.00  0.00    -0.354 N 
ATOM      9  H   UNL d   1     -28.290  22.238  25.251  0.00  0.00     0.166 HD
BRANCH   8  10
ATOM     10  C   UNL d   1     -29.391  22.265  23.519  0.00  0.00     0.049 A 
ATOM     11  C   UNL d   1     -30.593  21.824  24.098  0.00  0.00     0.064 A 
ATOM     12  C   UNL d   1     -31.742  21.720  23.308  0.00  0.00     0.027 A 
ATOM     13  C   UNL d   1     -31.688  22.048  21.972  0.00  0.00    -0.061 A 
ATOM     14  C   UNL d   1     -30.501  22.482  21.403  0.00  0.00     0.009 A 
ATOM     15  C   UNL d   1     -32.928  21.934  21.122  0.00  0.00     0.048 C 
ATOM     16  C   UNL d   1     -29.359  22.597  22.170  0.00  0.00     0.031 A 
BRANCH  11  17
ATOM     17  C   UNL d   1     -30.642  21.475  25.528  0.00  0.00     0.178 C 
ATOM     18  O   UNL d   1     -31.518  21.931  26.236  0.00  0.00    -0.646 OA
BRANCH  17  19
ATOM     19  O   UNL d   1     -29.713  20.650  26.051  0.00  0.00    -0.773 OA
ATOM     20  H   UNL d   1     -28.791  20.819  25.812  0.00  0.00     0.167 HD
ENDBRANCH  17  19
ENDBRANCH  11  17
ENDBRANCH   8  10
ENDBRANCH   4   8
BRANCH   1  21
ATOM     21  C   UNL d   1     -23.335  23.728  21.950  0.00  0.00    -0.004 A 
ATOM     22  C   UNL d   1     -23.278  24.140  20.619  0.00  0.00     0.014 A 
ATOM     23  C   UNL d   1     -22.069  24.497  20.058  0.00  0.00     0.004 A 
ATOM     24  C   UNL d   1     -20.910  24.438  20.809  0.00  0.00     0.037 A 
ATOM     25  C   UNL d   1     -20.956  24.023  22.134  0.00  0.00     0.069 A 
ATOM     26  C   UNL d   1     -22.166  23.668  22.706  0.00  0.00     0.050 A 
BRANCH  25  27
ATOM     27  O   UNL d   1     -19.814  23.965  22.867  0.00  0.00    -0.351 OA
BRANCH  27  28
ATOM     28  C   UNL d   1     -19.839  24.575  24.159  0.00  0.00     0.171 C 
ATOM     29  C   UNL d   1     -19.599  26.079  24.019  0.00  0.00     0.034 C 
ENDBRANCH  27  28
ENDBRANCH  25  27
ENDBRANCH   1  21
TORSDOF 7
ENDMDL
