MODEL 1
REMARK VINA RESULT:      -9.5      0.000      0.000
REMARK  6 active torsions:
REMARK  status: ('A' for Active; 'I' for Inactive)
REMARK    1  A    between atoms: C_2  and  C_5 
REMARK    2  A    between atoms: C_8  and  C_9 
REMARK    3  A    between atoms: C_9  and  C_10 
REMARK    4  A    between atoms: C_10  and  C_11 
REMARK    5  A    between atoms: CA_12  and  C_13 
REMARK    6  A    between atoms: C_13  and  OXT_15 
ROOT
ATOM      1  C   UNL d   1     -30.441  22.128  23.188  0.00  0.00     0.044 A 
ATOM      2  CA  UNL d   1     -31.371  21.580  24.011  0.00  0.00     0.122 A 
ATOM      3  N   UNL d   1     -32.618  21.270  23.513  0.00  0.00    -0.302 N 
ATOM      4  H   UNL d   1     -33.283  20.878  24.100  0.00  0.00     0.171 HD
ATOM      5  C   UNL d   1     -32.930  21.501  22.227  0.00  0.00     0.327 A 
ATOM      6  O   UNL d   1     -34.041  21.215  21.826  0.00  0.00    -0.247 OA
ATOM      7  N   UNL d   1     -32.045  22.043  21.370  0.00  0.00    -0.275 N 
ATOM      8  H   UNL d   1     -32.300  22.197  20.447  0.00  0.00     0.173 HD
ATOM      9  C   UNL d   1     -30.807  22.377  21.788  0.00  0.00     0.258 A 
ATOM     10  O   UNL d   1     -30.006  22.872  21.018  0.00  0.00    -0.267 OA
ENDROOT
BRANCH   1  11
ATOM     11  C   UNL d   1     -29.068  22.479  23.700  0.00  0.00     0.051 C 
BRANCH  11  12
ATOM     12  C   UNL d   1     -28.033  21.543  23.070  0.00  0.00     0.043 C 
BRANCH  12  13
ATOM     13  C   UNL d   1     -26.730  22.278  22.899  0.00  0.00    -0.058 A 
ATOM     14  C   UNL d   1     -25.827  21.869  21.935  0.00  0.00     0.007 A 
ATOM     15  C   UNL d   1     -24.628  22.539  21.781  0.00  0.00     0.008 A 
ATOM     16  C   UNL d   1     -24.336  23.627  22.584  0.00  0.00    -0.051 A 
ATOM     17  C   UNL d   1     -25.241  24.039  23.544  0.00  0.00     0.008 A 
ATOM     18  C   UNL d   1     -26.437  23.365  23.701  0.00  0.00     0.007 A 
BRANCH  16  19
ATOM     19  C   UNL d   1     -23.031  24.361  22.412  0.00  0.00    -0.024 C 
ATOM     20  C   UNL d   1     -22.672  24.419  20.926  0.00  0.00     0.019 C 
ATOM     21  C   UNL d   1     -23.172  25.784  22.958  0.00  0.00     0.019 C 
ATOM     22  C   UNL d   1     -21.928  23.628  23.176  0.00  0.00     0.019 C 
ENDBRANCH  16  19
ENDBRANCH  12  13
ENDBRANCH  11  12
ENDBRANCH   1  11
BRANCH   2  23
ATOM     23  C   UNL d   1     -31.048  21.316  25.435  0.00  0.00     0.194 C 
ATOM     24  O   UNL d   1     -31.400  22.100  26.292  0.00  0.00    -0.645 OA
BRANCH  23  25
ATOM     25  OXT UNL d   1     -30.365  20.206  25.775  0.00  0.00    -0.772 OA
ATOM     26  HXT UNL d   1     -29.533  20.332  26.251  0.00  0.00     0.167 HD
ENDBRANCH  23  25
ENDBRANCH   2  23
TORSDOF 6
ENDMDL
