MODEL 1
REMARK VINA RESULT:     -10.9      0.000      0.000
REMARK  6 active torsions:
REMARK  status: ('A' for Active; 'I' for Inactive)
REMARK    1  A    between atoms: C_7  and  N_8 
REMARK       I    between atoms: N_8  and  C_9 
REMARK    2  A    between atoms: C_9  and  C_11 
REMARK    3  A    between atoms: C_15  and  N_16 
REMARK    4  A    between atoms: C_27  and  O_28 
REMARK    5  A    between atoms: O_28  and  C_29 
REMARK    6  A    between atoms: C_29  and  C_31 
ROOT
ATOM      1  C   UNL d   1     -24.230  24.535  23.429  0.00  0.00     0.068 A 
ATOM      2  C   UNL d   1     -25.091  25.057  24.399  0.00  0.00     0.064 A 
ATOM      3  C   UNL d   1     -26.332  24.492  24.593  0.00  0.00     0.146 A 
ATOM      4  F   UNL d   1     -27.165  25.000  25.526  0.00  0.00    -0.204 F 
ATOM      5  C   UNL d   1     -26.728  23.393  23.832  0.00  0.00     0.104 A 
ATOM      6  C   UNL d   1     -25.878  22.868  22.867  0.00  0.00     0.073 A 
ATOM      7  C   UNL d   1     -24.631  23.433  22.660  0.00  0.00     0.087 A 
ENDROOT
BRANCH   1   8
ATOM      8  C   UNL d   1     -22.904  25.141  23.214  0.00  0.00     0.259 C 
ATOM      9  N   UNL d   1     -21.811  24.585  23.773  0.00  0.00    -0.319 N 
ATOM     10  H   UNL d   1     -21.881  23.737  24.237  0.00  0.00     0.169 HD
ATOM     11  O   UNL d   1     -22.797  26.144  22.533  0.00  0.00    -0.267 OA
BRANCH   9  12
ATOM     12  C   UNL d   1     -20.567  25.236  23.681  0.00  0.00     0.093 A 
ATOM     13  C   UNL d   1     -19.527  25.008  22.745  0.00  0.00     0.087 A 
ATOM     14  C   UNL d   1     -19.528  24.003  21.623  0.00  0.00     0.075 C 
ATOM     15  N   UNL d   1     -18.575  25.843  23.043  0.00  0.00    -0.131 NA
ATOM     16  O   UNL d   1     -18.859  26.524  24.000  0.00  0.00    -0.216 OA
ATOM     17  C   UNL d   1     -20.080  26.226  24.475  0.00  0.00     0.103 A 
ATOM     18  C   UNL d   1     -20.771  26.863  25.652  0.00  0.00     0.081 C 
ENDBRANCH   9  12
ENDBRANCH   1   8
BRANCH   7  19
ATOM     19  O   UNL d   1     -23.801  22.921  21.717  0.00  0.00    -0.336 OA
BRANCH  19  20
ATOM     20  C   UNL d   1     -23.954  23.411  20.383  0.00  0.00     0.232 C 
ATOM     21  C   UNL d   1     -22.591  23.841  19.837  0.00  0.00     0.049 C 
BRANCH  20  22
ATOM     22  C   UNL d   1     -24.532  22.304  19.498  0.00  0.00     0.413 C 
ATOM     23  F   UNL d   1     -24.559  22.738  18.169  0.00  0.00    -0.168 F 
ATOM     24  F   UNL d   1     -23.731  21.161  19.598  0.00  0.00    -0.168 F 
ATOM     25  F   UNL d   1     -25.831  22.002  19.917  0.00  0.00    -0.168 F 
ENDBRANCH  20  22
ENDBRANCH  19  20
ENDBRANCH   7  19
BRANCH   5  26
ATOM     26  N   UNL d   1     -27.985  22.821  24.037  0.00  0.00    -0.178 N 
ATOM     27  C   UNL d   1     -28.360  22.070  25.096  0.00  0.00     0.351 A 
ATOM     28  N   UNL d   1     -29.652  21.745  24.919  0.00  0.00    -0.284 N 
ATOM     29  O   UNL d   1     -27.658  21.748  26.036  0.00  0.00    -0.244 OA
ATOM     30  C   UNL d   1     -30.070  22.268  23.712  0.00  0.00     0.131 A 
ATOM     31  C   UNL d   1     -30.513  20.986  25.832  0.00  0.00     0.135 C 
ATOM     32  N   UNL d   1     -29.092  22.917  23.180  0.00  0.00    -0.149 NA
ATOM     33  C   UNL d   1     -31.460  22.075  23.151  0.00  0.00     0.081 C 
ATOM     34  C   UNL d   1     -32.380  21.640  24.301  0.00  0.00     0.009 C 
ATOM     35  C   UNL d   1     -31.726  20.473  25.048  0.00  0.00     0.021 C 
ENDBRANCH   5  26
TORSDOF 6
ENDMDL
