MODEL 1
REMARK VINA RESULT:      -9.6      0.000      0.000
REMARK  6 active torsions:
REMARK  status: ('A' for Active; 'I' for Inactive)
REMARK    1  A    between atoms: C_2  and  N_3 
REMARK    2  A    between atoms: C_4  and  C_5 
REMARK    3  A    between atoms: C_5  and  O_6 
REMARK    4  A    between atoms: N_8  and  C_9 
REMARK    5  A    between atoms: C_12  and  C_13 
REMARK    6  A    between atoms: N_17  and  C_18 
ROOT
ATOM      1  C   UNL d   1     -28.860  22.084  22.290  0.00  0.00     0.103 A 
ATOM      2  C   UNL d   1     -28.142  22.960  23.088  0.00  0.00     0.048 A 
ATOM      3  C   UNL d   1     -26.792  23.178  22.821  0.00  0.00    -0.010 A 
ATOM      4  C   UNL d   1     -25.982  24.091  23.629  0.00  0.00    -0.027 A 
ATOM      5  C   UNL d   1     -24.684  24.260  23.330  0.00  0.00     0.109 A 
ATOM      6  N   UNL d   1     -24.083  23.615  22.284  0.00  0.00    -0.285 N 
ATOM      7  C   UNL d   1     -24.753  22.757  21.488  0.00  0.00     0.263 A 
ATOM      8  O   UNL d   1     -24.182  22.199  20.568  0.00  0.00    -0.267 OA
ATOM      9  C   UNL d   1     -26.173  22.505  21.740  0.00  0.00     0.046 A 
ATOM     10  C   UNL d   1     -26.917  21.627  20.950  0.00  0.00     0.062 A 
ATOM     11  C   UNL d   1     -28.241  21.423  21.226  0.00  0.00     0.146 A 
ATOM     12  F   UNL d   1     -28.959  20.573  20.460  0.00  0.00    -0.204 F 
ENDROOT
BRANCH   1  13
ATOM     13  N   UNL d   1     -30.214  21.860  22.551  0.00  0.00    -0.178 N 
ATOM     14  N   UNL d   1     -30.769  21.448  23.771  0.00  0.00    -0.147 NA
ATOM     15  C   UNL d   1     -32.050  21.351  23.619  0.00  0.00     0.154 A 
ATOM     16  N   UNL d   1     -32.370  21.687  22.326  0.00  0.00    -0.283 N 
ATOM     17  C   UNL d   1     -31.232  22.006  21.678  0.00  0.00     0.351 A 
ATOM     18  O   UNL d   1     -31.140  22.357  20.515  0.00  0.00    -0.244 OA
BRANCH  15  19
ATOM     19  C   UNL d   1     -33.032  20.936  24.685  0.00  0.00     0.244 C 
BRANCH  19  20
ATOM     20  O   UNL d   1     -32.374  20.913  25.953  0.00  0.00    -0.393 OA
ATOM     21  H   UNL d   1     -32.804  20.345  26.608  0.00  0.00     0.209 HD
ENDBRANCH  19  20
ENDBRANCH  15  19
BRANCH  16  22
ATOM     22  C   UNL d   1     -33.718  21.704  21.753  0.00  0.00     0.131 C 
ATOM     23  C   UNL d   1     -34.077  20.304  21.250  0.00  0.00     0.027 C 
ENDBRANCH  16  22
ENDBRANCH   1  13
BRANCH   4  24
ATOM     24  C   UNL d   1     -26.596  24.831  24.789  0.00  0.00     0.013 C 
ATOM     25  C   UNL d   1     -26.730  23.885  25.983  0.00  0.00     0.015 C 
ATOM     26  C   UNL d   1     -25.701  26.012  25.172  0.00  0.00     0.015 C 
ENDBRANCH   4  24
BRANCH   6  27
ATOM     27  C   UNL d   1     -22.726  23.850  22.034  0.00  0.00     0.083 A 
ATOM     28  C   UNL d   1     -21.760  23.317  22.881  0.00  0.00     0.143 A 
ATOM     29  C   UNL d   1     -20.418  23.545  22.628  0.00  0.00     0.047 A 
ATOM     30  F   UNL d   1     -22.129  22.572  23.945  0.00  0.00    -0.204 F 
ATOM     31  C   UNL d   1     -20.039  24.307  21.539  0.00  0.00     0.045 A 
ATOM     32  C   UNL d   1     -20.999  24.844  20.697  0.00  0.00     0.118 A 
ATOM     33  C   UNL d   1     -22.341  24.619  20.945  0.00  0.00     0.075 A 
ATOM     34  F   UNL d   1     -20.623  25.588  19.634  0.00  0.00    -0.206 F 
ENDBRANCH   6  27
TORSDOF 6
ENDMDL
