MODEL 1
REMARK VINA RESULT:     -10.7      0.000      0.000
REMARK  6 active torsions:
REMARK  status: ('A' for Active; 'I' for Inactive)
REMARK    1  A    between atoms: C_4  and  N_5 
REMARK    2  A    between atoms: N_5  and  N_7 
REMARK    3  A    between atoms: C_8  and  C_9 
REMARK    4  A    between atoms: C_14  and  C_15 
REMARK    5  A    between atoms: C_15  and  O_17 
REMARK    6  A    between atoms: C_19  and  C_20 
ROOT
ATOM      1  N   UNL d   1     -27.905  22.150  24.318  0.00  0.00    -0.251 N 
ATOM      2  C   UNL d   1     -27.783  22.478  25.740  0.00  0.00     0.182 C 
ENDROOT
BRANCH   1   3
ATOM      3  C   UNL d   1     -26.827  22.335  23.469  0.00  0.00     0.190 A 
ATOM      4  S   UNL d   1     -26.665  21.637  21.861  0.00  0.00    -0.053 SA
ATOM      5  C   UNL d   1     -25.099  22.422  21.676  0.00  0.00     0.012 A 
ATOM      6  C   UNL d   1     -24.203  22.333  20.468  0.00  0.00     0.059 C 
ATOM      7  C   UNL d   1     -24.838  23.111  22.801  0.00  0.00     0.082 A 
ATOM      8  N   UNL d   1     -25.775  23.046  23.737  0.00  0.00    -0.221 NA
BRANCH   7   9
ATOM      9  C   UNL d   1     -23.589  23.889  22.983  0.00  0.00    -0.006 A 
ATOM     10  C   UNL d   1     -23.603  25.276  22.847  0.00  0.00     0.014 A 
ATOM     11  C   UNL d   1     -22.436  25.995  23.018  0.00  0.00     0.001 A 
ATOM     12  C   UNL d   1     -21.256  25.341  23.325  0.00  0.00     0.000 A 
ATOM     13  C   UNL d   1     -21.237  23.965  23.462  0.00  0.00     0.001 A 
ATOM     14  C   UNL d   1     -22.398  23.237  23.298  0.00  0.00     0.014 A 
ENDBRANCH   7   9
ENDBRANCH   1   3
BRANCH   1  15
ATOM     15  N   UNL d   1     -29.113  21.647  23.816  0.00  0.00    -0.182 NA
ATOM     16  C   UNL d   1     -30.174  22.400  23.800  0.00  0.00     0.151 C 
BRANCH  16  17
ATOM     17  C   UNL d   1     -31.442  21.873  23.273  0.00  0.00    -0.000 A 
ATOM     18  C   UNL d   1     -32.226  20.998  24.054  0.00  0.00     0.049 A 
ATOM     19  C   UNL d   1     -33.430  20.511  23.541  0.00  0.00     0.019 A 
ATOM     20  C   UNL d   1     -33.841  20.882  22.278  0.00  0.00     0.001 A 
ATOM     21  C   UNL d   1     -33.067  21.738  21.509  0.00  0.00     0.001 A 
ATOM     22  C   UNL d   1     -31.875  22.231  21.995  0.00  0.00     0.014 A 
BRANCH  18  23
ATOM     23  C   UNL d   1     -31.782  20.606  25.403  0.00  0.00     0.177 C 
ATOM     24  O   UNL d   1     -32.137  21.250  26.369  0.00  0.00    -0.646 OA
BRANCH  23  25
ATOM     25  O   UNL d   1     -30.983  19.533  25.564  0.00  0.00    -0.773 OA
ATOM     26  H   UNL d   1     -30.036  19.665  25.416  0.00  0.00     0.167 HD
ENDBRANCH  23  25
ENDBRANCH  18  23
ENDBRANCH  16  17
ENDBRANCH   1  15
TORSDOF 6
ENDMDL
