MODEL 1
REMARK VINA RESULT:      -9.5      0.000      0.000
REMARK  3 active torsions:
REMARK  status: ('A' for Active; 'I' for Inactive)
REMARK    1  A    between atoms: C_3  and  O_4 
REMARK    2  A    between atoms: C_5  and  N_6 
REMARK    3  A    between atoms: N_6  and  C_7 
ROOT
ATOM      1  O   UNL d   1     -18.537  24.641  24.269  0.00  0.00    -0.284 OA
ATOM      2  C   UNL d   1     -19.610  25.065  23.886  0.00  0.00     0.218 A 
ATOM      3  C   UNL d   1     -20.192  24.572  22.632  0.00  0.00     0.148 A 
ATOM      4  C   UNL d   1     -21.389  25.036  22.191  0.00  0.00     0.121 A 
ATOM      5  C   UNL d   1     -22.135  26.048  22.964  0.00  0.00     0.212 A 
ATOM      6  O   UNL d   1     -23.206  26.457  22.561  0.00  0.00    -0.285 OA
ATOM      7  C   UNL d   1     -21.574  26.563  24.232  0.00  0.00     0.031 A 
ATOM      8  C   UNL d   1     -22.258  27.515  24.978  0.00  0.00     0.016 A 
ATOM      9  C   UNL d   1     -21.713  27.984  26.163  0.00  0.00     0.001 A 
ATOM     10  C   UNL d   1     -20.494  27.510  26.609  0.00  0.00     0.001 A 
ATOM     11  C   UNL d   1     -19.800  26.560  25.875  0.00  0.00     0.016 A 
ATOM     12  C   UNL d   1     -20.334  26.081  24.686  0.00  0.00     0.031 A 
ENDROOT
BRANCH   4  13
ATOM     13  N   UNL d   1     -21.917  24.553  21.004  0.00  0.00    -0.351 N 
ATOM     14  H   UNL d   1     -21.555  24.853  20.155  0.00  0.00     0.166 HD
BRANCH  13  15
ATOM     15  C   UNL d   1     -22.970  23.636  21.029  0.00  0.00     0.032 A 
ATOM     16  C   UNL d   1     -23.592  23.258  19.846  0.00  0.00     0.032 A 
ATOM     17  C   UNL d   1     -24.633  22.352  19.874  0.00  0.00     0.044 A 
ATOM     18  C   UNL d   1     -25.055  21.817  21.079  0.00  0.00     0.116 A 
ATOM     19  C   UNL d   1     -24.437  22.192  22.260  0.00  0.00     0.044 A 
ATOM     20  F   UNL d   1     -26.073  20.929  21.104  0.00  0.00    -0.206 F 
ATOM     21  C   UNL d   1     -23.392  23.096  22.237  0.00  0.00     0.032 A 
ENDBRANCH  13  15
ENDBRANCH   4  13
BRANCH   3  22
ATOM     22  O   UNL d   1     -19.526  23.637  21.906  0.00  0.00    -0.355 OA
ATOM     23  H   UNL d   1     -18.598  23.854  21.741  0.00  0.00     0.218 HD
ENDBRANCH   3  22
TORSDOF 3
ENDMDL
