MODEL 1
REMARK VINA RESULT:      -9.8      0.000      0.000
REMARK  8 active torsions:
REMARK  status: ('A' for Active; 'I' for Inactive)
REMARK    1  A    between atoms: C_2  and  O_3 
REMARK    2  A    between atoms: C_2  and  C_29 
REMARK    3  A    between atoms: O_3  and  C_4 
REMARK    4  A    between atoms: C_6  and  N_7 
REMARK    5  A    between atoms: C_20  and  C_21 
REMARK       I    between atoms: C_21  and  N_23 
REMARK    6  A    between atoms: N_23  and  C_24 
REMARK    7  A    between atoms: C_24  and  C_25 
REMARK    8  A    between atoms: C_25  and  O_28 
ROOT
ATOM      1  C   UNL d   1     -24.519  23.693  22.836  0.00  0.00     0.087 A 
ATOM      2  C   UNL d   1     -25.687  23.024  23.156  0.00  0.00     0.073 A 
ATOM      3  C   UNL d   1     -26.576  23.576  24.069  0.00  0.00     0.104 A 
ATOM      4  C   UNL d   1     -26.300  24.807  24.662  0.00  0.00     0.146 A 
ATOM      5  F   UNL d   1     -27.169  25.338  25.550  0.00  0.00    -0.204 F 
ATOM      6  C   UNL d   1     -25.142  25.483  24.347  0.00  0.00     0.064 A 
ATOM      7  C   UNL d   1     -24.240  24.934  23.429  0.00  0.00     0.068 A 
ENDROOT
BRANCH   3   8
ATOM      8  N   UNL d   1     -27.751  22.896  24.394  0.00  0.00    -0.178 N 
ATOM      9  C   UNL d   1     -27.992  22.213  25.535  0.00  0.00     0.351 A 
ATOM     10  N   UNL d   1     -29.245  21.734  25.459  0.00  0.00    -0.284 N 
ATOM     11  O   UNL d   1     -27.216  22.060  26.461  0.00  0.00    -0.244 OA
ATOM     12  C   UNL d   1     -29.775  22.096  24.238  0.00  0.00     0.131 A 
ATOM     13  C   UNL d   1     -29.975  20.978  26.483  0.00  0.00     0.135 C 
ATOM     14  N   UNL d   1     -28.904  22.800  23.599  0.00  0.00    -0.149 NA
ATOM     15  C   UNL d   1     -31.153  21.692  23.769  0.00  0.00     0.081 C 
ATOM     16  C   UNL d   1     -31.967  21.267  24.999  0.00  0.00     0.009 C 
ATOM     17  C   UNL d   1     -31.152  20.259  25.814  0.00  0.00     0.021 C 
ENDBRANCH   3   8
BRANCH   1  18
ATOM     18  O   UNL d   1     -23.647  23.153  21.949  0.00  0.00    -0.336 OA
BRANCH  18  19
ATOM     19  C   UNL d   1     -23.944  23.323  20.561  0.00  0.00     0.232 C 
ATOM     20  C   UNL d   1     -22.671  23.716  19.811  0.00  0.00     0.049 C 
BRANCH  19  21
ATOM     21  C   UNL d   1     -24.488  22.012  19.992  0.00  0.00     0.413 C 
ATOM     22  F   UNL d   1     -24.275  20.979  20.912  0.00  0.00    -0.168 F 
ATOM     23  F   UNL d   1     -25.859  22.142  19.747  0.00  0.00    -0.168 F 
ATOM     24  F   UNL d   1     -23.827  21.713  18.796  0.00  0.00    -0.168 F 
ENDBRANCH  19  21
ENDBRANCH  18  19
ENDBRANCH   1  18
BRANCH   7  25
ATOM     25  C   UNL d   1     -23.002  25.654  23.089  0.00  0.00     0.254 C 
ATOM     26  O   UNL d   1     -23.041  26.842  22.827  0.00  0.00    -0.268 OA
ATOM     27  N   UNL d   1     -21.824  24.998  23.067  0.00  0.00    -0.354 N 
ATOM     28  H   UNL d   1     -21.793  24.051  23.275  0.00  0.00     0.162 HD
BRANCH  27  29
ATOM     29  C   UNL d   1     -20.593  25.715  22.729  0.00  0.00     0.159 C 
BRANCH  29  30
ATOM     30  C   UNL d   1     -19.637  25.677  23.923  0.00  0.00     0.066 C 
ATOM     31  C   UNL d   1     -18.252  26.156  23.484  0.00  0.00     0.047 C 
ATOM     32  C   UNL d   1     -20.165  26.591  25.029  0.00  0.00     0.047 C 
BRANCH  30  33
ATOM     33  O   UNL d   1     -19.543  24.338  24.416  0.00  0.00    -0.389 OA
ATOM     34  H   UNL d   1     -19.445  24.278  25.376  0.00  0.00     0.210 HD
ENDBRANCH  30  33
ENDBRANCH  29  30
ENDBRANCH  27  29
ENDBRANCH   7  25
TORSDOF 8
ENDMDL
