MODEL 1
REMARK VINA RESULT:     -10.2      0.000      0.000
REMARK  8 active torsions:
REMARK  status: ('A' for Active; 'I' for Inactive)
REMARK    1  A    between atoms: C_8  and  N_9 
REMARK       I    between atoms: N_9  and  C_10 
REMARK    2  A    between atoms: C_10  and  C_12 
REMARK    3  A    between atoms: C_16  and  N_17 
REMARK    4  A    between atoms: C_19  and  C_20 
REMARK    5  A    between atoms: C_20  and  O_21 
REMARK    6  A    between atoms: C_27  and  O_28 
REMARK    7  A    between atoms: O_28  and  C_29 
REMARK    8  A    between atoms: C_29  and  C_31 
ROOT
ATOM      1  C   UNL d   1     -24.269  24.385  23.414  0.00  0.00     0.068 A 
ATOM      2  C   UNL d   1     -25.142  24.892  24.383  0.00  0.00     0.064 A 
ATOM      3  C   UNL d   1     -26.389  24.333  24.544  0.00  0.00     0.146 A 
ATOM      4  F   UNL d   1     -27.232  24.822  25.480  0.00  0.00    -0.204 F 
ATOM      5  C   UNL d   1     -26.785  23.260  23.745  0.00  0.00     0.104 A 
ATOM      6  C   UNL d   1     -25.925  22.751  22.781  0.00  0.00     0.073 A 
ATOM      7  C   UNL d   1     -24.671  23.312  22.607  0.00  0.00     0.087 A 
ENDROOT
BRANCH   1   8
ATOM      8  C   UNL d   1     -22.933  24.982  23.240  0.00  0.00     0.259 C 
ATOM      9  N   UNL d   1     -21.865  24.435  23.853  0.00  0.00    -0.320 N 
ATOM     10  H   UNL d   1     -21.959  23.603  24.342  0.00  0.00     0.169 HD
ATOM     11  O   UNL d   1     -22.795  25.969  22.542  0.00  0.00    -0.267 OA
BRANCH   9  12
ATOM     12  C   UNL d   1     -20.619  25.069  23.783  0.00  0.00     0.080 A 
ATOM     13  C   UNL d   1     -20.286  26.052  24.706  0.00  0.00    -0.032 A 
ATOM     14  C   UNL d   1     -21.266  26.439  25.782  0.00  0.00     0.050 C 
ATOM     15  C   UNL d   1     -19.053  26.671  24.638  0.00  0.00     0.009 A 
ATOM     16  C   UNL d   1     -18.155  26.323  23.647  0.00  0.00     0.004 A 
ATOM     17  C   UNL d   1     -18.481  25.344  22.726  0.00  0.00     0.045 A 
ATOM     18  C   UNL d   1     -19.711  24.716  22.791  0.00  0.00     0.143 A 
ATOM     19  F   UNL d   1     -20.030  23.758  21.891  0.00  0.00    -0.204 F 
ENDBRANCH   9  12
ENDBRANCH   1   8
BRANCH   7  20
ATOM     20  O   UNL d   1     -23.832  22.819  21.661  0.00  0.00    -0.336 OA
BRANCH  20  21
ATOM     21  C   UNL d   1     -23.934  23.374  20.348  0.00  0.00     0.232 C 
ATOM     22  C   UNL d   1     -22.546  23.795  19.863  0.00  0.00     0.049 C 
BRANCH  21  23
ATOM     23  C   UNL d   1     -24.511  22.326  19.395  0.00  0.00     0.413 C 
ATOM     24  F   UNL d   1     -24.586  22.860  18.104  0.00  0.00    -0.168 F 
ATOM     25  F   UNL d   1     -23.684  21.198  19.386  0.00  0.00    -0.168 F 
ATOM     26  F   UNL d   1     -25.792  21.961  19.824  0.00  0.00    -0.168 F 
ENDBRANCH  21  23
ENDBRANCH  20  21
ENDBRANCH   7  20
BRANCH   5  27
ATOM     27  N   UNL d   1     -28.052  22.696  23.914  0.00  0.00    -0.178 N 
ATOM     28  C   UNL d   1     -29.086  22.780  23.051  0.00  0.00     0.351 A 
ATOM     29  N   UNL d   1     -30.117  22.098  23.590  0.00  0.00    -0.287 N 
ATOM     30  O   UNL d   1     -29.087  23.361  21.981  0.00  0.00    -0.244 OA
ATOM     31  C   UNL d   1     -29.716  21.597  24.805  0.00  0.00     0.154 A 
ATOM     32  C   UNL d   1     -31.441  21.928  22.988  0.00  0.00     0.163 C 
ATOM     33  N   UNL d   1     -28.486  21.944  25.014  0.00  0.00    -0.147 NA
BRANCH  31  34
ATOM     34  C   UNL d   1     -30.566  20.777  25.740  0.00  0.00     0.244 C 
BRANCH  34  35
ATOM     35  O   UNL d   1     -31.491  21.631  26.415  0.00  0.00    -0.393 OA
ATOM     36  H   UNL d   1     -31.141  22.031  27.222  0.00  0.00     0.209 HD
ENDBRANCH  34  35
ENDBRANCH  31  34
ENDBRANCH   5  27
TORSDOF 8
ENDMDL
