MODEL 1
REMARK VINA RESULT:     -12.4      0.000      0.000
REMARK  6 active torsions:
REMARK  status: ('A' for Active; 'I' for Inactive)
REMARK    1  A    between atoms: C_5  and  C_6 
REMARK    2  A    between atoms: C_6  and  O_8 
REMARK    3  A    between atoms: C_10  and  C_11 
REMARK    4  A    between atoms: C_16  and  C_17 
REMARK    5  A    between atoms: C_20  and  C_21 
REMARK    6  A    between atoms: C_21  and  N_22 
ROOT
ATOM      1  C   UNL d   1     -26.995  22.632  22.980  0.00  0.00     0.058 A 
ATOM      2  C   UNL d   1     -26.406  23.679  23.690  0.00  0.00     0.170 A 
ATOM      3  F   UNL d   1     -27.136  24.382  24.584  0.00  0.00    -0.202 F 
ATOM      4  C   UNL d   1     -25.077  23.996  23.480  0.00  0.00     0.170 A 
ATOM      5  F   UNL d   1     -24.508  25.009  24.170  0.00  0.00    -0.202 F 
ATOM      6  C   UNL d   1     -24.323  23.269  22.558  0.00  0.00     0.058 A 
ATOM      7  C   UNL d   1     -24.912  22.222  21.847  0.00  0.00     0.170 A 
ATOM      8  F   UNL d   1     -24.182  21.518  20.953  0.00  0.00    -0.202 F 
ATOM      9  C   UNL d   1     -26.241  21.905  22.057  0.00  0.00     0.170 A 
ATOM     10  F   UNL d   1     -26.809  20.890  21.369  0.00  0.00    -0.202 F 
ENDROOT
BRANCH   1  11
ATOM     11  C   UNL d   1     -28.420  22.291  23.205  0.00  0.00    -0.016 A 
ATOM     12  C   UNL d   1     -28.816  21.738  24.422  0.00  0.00     0.033 A 
ATOM     13  C   UNL d   1     -30.151  21.420  24.645  0.00  0.00     0.069 A 
ATOM     14  C   UNL d   1     -31.103  21.651  23.626  0.00  0.00     0.102 A 
ATOM     15  N   UNL d   1     -32.432  21.450  23.538  0.00  0.00    -0.233 NA
ATOM     16  C   UNL d   1     -30.687  22.204  22.402  0.00  0.00     0.064 A 
ATOM     17  C   UNL d   1     -32.860  21.832  22.369  0.00  0.00     0.101 A 
ATOM     18  C   UNL d   1     -34.293  21.759  21.907  0.00  0.00     0.091 C 
ATOM     19  N   UNL d   1     -31.826  22.306  21.626  0.00  0.00    -0.343 N 
ATOM     20  H   UNL d   1     -31.877  22.652  20.721  0.00  0.00     0.167 HD
ATOM     21  C   UNL d   1     -29.354  22.520  22.198  0.00  0.00     0.044 A 
BRANCH  13  22
ATOM     22  C   UNL d   1     -30.571  20.842  25.933  0.00  0.00     0.178 C 
ATOM     23  O   UNL d   1     -30.553  21.523  26.939  0.00  0.00    -0.646 OA
BRANCH  22  24
ATOM     24  O   UNL d   1     -30.975  19.558  25.995  0.00  0.00    -0.773 OA
ATOM     25  H   UNL d   1     -30.866  19.024  25.196  0.00  0.00     0.167 HD
ENDBRANCH  22  24
ENDBRANCH  13  22
ENDBRANCH   1  11
BRANCH   6  26
ATOM     26  C   UNL d   1     -22.900  23.613  22.328  0.00  0.00    -0.020 A 
ATOM     27  C   UNL d   1     -22.535  24.381  21.223  0.00  0.00     0.013 A 
ATOM     28  C   UNL d   1     -21.209  24.700  21.015  0.00  0.00     0.010 A 
ATOM     29  C   UNL d   1     -20.242  24.259  21.900  0.00  0.00    -0.030 A 
ATOM     30  C   UNL d   1     -20.597  23.497  22.999  0.00  0.00     0.010 A 
ATOM     31  C   UNL d   1     -21.921  23.176  23.219  0.00  0.00     0.013 A 
BRANCH  29  32
ATOM     32  C   UNL d   1     -18.795  24.611  21.668  0.00  0.00     0.311 C 
BRANCH  32  33
ATOM     33  N   UNL d   1     -18.222  25.168  22.899  0.00  0.00     0.096 N 
ATOM     34  C   UNL d   1     -19.093  26.212  23.460  0.00  0.00     0.299 C 
ATOM     35  C   UNL d   1     -18.491  26.722  24.771  0.00  0.00     0.198 C 
ATOM     36  O   UNL d   1     -17.164  27.196  24.528  0.00  0.00    -0.388 OA
ATOM     37  C   UNL d   1     -16.289  26.205  23.984  0.00  0.00     0.198 C 
ATOM     38  C   UNL d   1     -16.869  25.690  22.664  0.00  0.00     0.299 C 
ENDBRANCH  32  33
ENDBRANCH  29  32
ENDBRANCH   6  26
TORSDOF 6
ENDMDL
