MODEL 1
REMARK VINA RESULT:     -11.4      0.000      0.000
REMARK  5 active torsions:
REMARK  status: ('A' for Active; 'I' for Inactive)
REMARK    1  A    between atoms: C_2  and  O_3 
REMARK    2  A    between atoms: C_2  and  C_4 
REMARK    3  A    between atoms: C_6  and  C_7 
REMARK    4  A    between atoms: C_10  and  C_11 
REMARK    5  A    between atoms: C_16  and  C_17 
ROOT
ATOM      1  C   UNL d   1     -26.314  22.852  23.076  0.00  0.00    -0.007 A 
ATOM      2  C   UNL d   1     -25.443  22.021  22.370  0.00  0.00     0.014 A 
ATOM      3  C   UNL d   1     -24.108  22.346  22.272  0.00  0.00     0.013 A 
ATOM      4  C   UNL d   1     -23.624  23.500  22.887  0.00  0.00    -0.024 A 
ATOM      5  C   UNL d   1     -24.492  24.327  23.599  0.00  0.00     0.013 A 
ATOM      6  C   UNL d   1     -25.829  24.006  23.692  0.00  0.00     0.014 A 
ENDROOT
BRANCH   1   7
ATOM      7  C   UNL d   1     -27.750  22.505  23.176  0.00  0.00     0.068 A 
ATOM      8  C   UNL d   1     -28.265  22.098  24.416  0.00  0.00     0.051 A 
ATOM      9  C   UNL d   1     -29.610  21.777  24.524  0.00  0.00     0.052 A 
ATOM     10  C   UNL d   1     -30.425  21.885  23.314  0.00  0.00     0.010 A 
ATOM     11  C   UNL d   1     -29.805  22.309  22.112  0.00  0.00     0.068 A 
ATOM     12  C   UNL d   1     -31.792  21.584  23.323  0.00  0.00     0.015 A 
ATOM     13  N   UNL d   1     -28.502  22.597  22.099  0.00  0.00    -0.247 NA
ATOM     14  C   UNL d   1     -30.583  22.415  20.944  0.00  0.00     0.032 A 
ATOM     15  C   UNL d   1     -31.909  22.114  20.988  0.00  0.00     0.002 A 
ATOM     16  C   UNL d   1     -32.515  21.699  22.172  0.00  0.00     0.001 A 
BRANCH   9  17
ATOM     17  C   UNL d   1     -30.196  21.342  25.809  0.00  0.00     0.177 C 
ATOM     18  O   UNL d   1     -30.845  22.123  26.477  0.00  0.00    -0.646 OA
BRANCH  17  19
ATOM     19  O   UNL d   1     -30.012  20.079  26.241  0.00  0.00    -0.773 OA
ATOM     20  H   UNL d   1     -30.099  19.374  25.585  0.00  0.00     0.167 HD
ENDBRANCH  17  19
ENDBRANCH   9  17
ENDBRANCH   1   7
BRANCH   4  21
ATOM     21  C   UNL d   1     -22.186  23.846  22.788  0.00  0.00     0.007 A 
ATOM     22  C   UNL d   1     -21.653  24.329  21.589  0.00  0.00     0.061 A 
ATOM     23  C   UNL d   1     -20.306  24.642  21.549  0.00  0.00     0.036 A 
ATOM     24  C   UNL d   1     -19.534  24.459  22.682  0.00  0.00     0.117 A 
ATOM     25  N   UNL d   1     -20.064  23.997  23.798  0.00  0.00    -0.272 NA
ATOM     26  C   UNL d   1     -21.341  23.691  23.886  0.00  0.00     0.129 A 
BRANCH  22  27
ATOM     27  C   UNL d   1     -22.525  24.508  20.373  0.00  0.00     0.418 C 
ATOM     28  F   UNL d   1     -21.827  25.233  19.401  0.00  0.00    -0.166 F 
ATOM     29  F   UNL d   1     -22.872  23.254  19.858  0.00  0.00    -0.166 F 
ATOM     30  F   UNL d   1     -23.685  25.202  20.730  0.00  0.00    -0.166 F 
ENDBRANCH  22  27
ENDBRANCH   4  21
TORSDOF 5
ENDMDL
