MODEL 1
REMARK VINA RESULT:     -12.6      0.000      0.000
REMARK  4 active torsions:
REMARK  status: ('A' for Active; 'I' for Inactive)
REMARK       I    between atoms: C_2  and  N_3 
REMARK    1  A    between atoms: C_2  and  C_20 
REMARK    2  A    between atoms: N_3  and  C_4 
REMARK    3  A    between atoms: C_9  and  C_10 
REMARK    4  A    between atoms: C_21  and  O_22 
ROOT
ATOM      1  C   UNL d   1     -26.612  22.204  23.054  0.00  0.00     0.119 A 
ATOM      2  C   UNL d   1     -26.001  23.244  23.747  0.00  0.00     0.185 A 
ATOM      3  F   UNL d   1     -26.565  23.723  24.877  0.00  0.00    -0.200 F 
ATOM      4  C   UNL d   1     -24.818  23.787  23.280  0.00  0.00     0.171 A 
ATOM      5  F   UNL d   1     -24.226  24.797  23.953  0.00  0.00    -0.202 F 
ATOM      6  C   UNL d   1     -24.238  23.290  22.112  0.00  0.00     0.058 A 
ATOM      7  C   UNL d   1     -24.856  22.250  21.415  0.00  0.00     0.171 A 
ATOM      8  F   UNL d   1     -24.299  21.771  20.282  0.00  0.00    -0.202 F 
ATOM      9  C   UNL d   1     -26.035  21.707  21.890  0.00  0.00     0.185 A 
ATOM     10  F   UNL d   1     -26.631  20.697  21.220  0.00  0.00    -0.200 F 
ENDROOT
BRANCH   1  11
ATOM     11  N   UNL d   1     -27.810  21.656  23.529  0.00  0.00    -0.317 N 
ATOM     12  C   UNL d   1     -28.979  22.282  23.290  0.00  0.00     0.263 C 
ATOM     13  O   UNL d   1     -29.005  23.275  22.587  0.00  0.00    -0.267 OA
ATOM     14  H   UNL d   1     -27.797  20.825  24.030  0.00  0.00     0.169 HD
BRANCH  12  15
ATOM     15  C   UNL d   1     -30.217  21.768  23.875  0.00  0.00     0.115 A 
ATOM     16  C   UNL d   1     -31.472  21.674  23.241  0.00  0.00     0.080 A 
ATOM     17  N   UNL d   1     -32.339  21.137  24.148  0.00  0.00    -0.219 N 
ATOM     18  C   UNL d   1     -31.912  22.000  21.952  0.00  0.00     0.033 A 
ATOM     19  N   UNL d   1     -31.635  20.907  25.337  0.00  0.00    -0.140 NA
ATOM     20  C   UNL d   1     -33.641  20.926  23.807  0.00  0.00     0.128 A 
ATOM     21  C   UNL d   1     -30.386  21.275  25.187  0.00  0.00     0.200 A 
ATOM     22 CL   UNL d   1     -34.735  20.249  24.972  0.00  0.00    -0.062 Cl
ATOM     23  C   UNL d   1     -34.090  21.237  22.568  0.00  0.00     0.044 A 
ATOM     24  C   UNL d   1     -33.219  21.784  21.617  0.00  0.00     0.005 A 
BRANCH  21  25
ATOM     25  O   UNL d   1     -29.417  21.195  26.134  0.00  0.00    -0.343 OA
ATOM     26  H   UNL d   1     -28.533  21.412  25.811  0.00  0.00     0.219 HD
ENDBRANCH  21  25
ENDBRANCH  12  15
ENDBRANCH   1  11
BRANCH   6  27
ATOM     27  C   UNL d   1     -22.969  23.872  21.608  0.00  0.00    -0.020 A 
ATOM     28  C   UNL d   1     -22.953  24.584  20.411  0.00  0.00     0.012 A 
ATOM     29  C   UNL d   1     -21.770  25.123  19.947  0.00  0.00     0.001 A 
ATOM     30  C   UNL d   1     -20.602  24.956  20.668  0.00  0.00     0.000 A 
ATOM     31  C   UNL d   1     -20.612  24.249  21.858  0.00  0.00     0.001 A 
ATOM     32  C   UNL d   1     -21.789  23.706  22.331  0.00  0.00     0.012 A 
ENDBRANCH   6  27
TORSDOF 4
ENDMDL
