MODEL 1
REMARK VINA RESULT:     -11.9      0.000      0.000
REMARK  7 active torsions:
REMARK  status: ('A' for Active; 'I' for Inactive)
REMARK    1  A    between atoms: C_2  and  O_3 
REMARK    2  A    between atoms: C_2  and  C_4 
REMARK    3  A    between atoms: C_6  and  C_7 
REMARK    4  A    between atoms: C_12  and  N_13 
REMARK    5  A    between atoms: N_13  and  C_14 
REMARK    6  A    between atoms: C_17  and  C_18 
REMARK    7  A    between atoms: C_20  and  C_21 
ROOT
ATOM      1  C   UNL d   1     -26.960  22.839  23.768  0.00  0.00     0.068 A 
ATOM      2  C   UNL d   1     -26.303  22.030  22.843  0.00  0.00     0.150 A 
ATOM      3  N   UNL d   1     -25.161  22.446  22.323  0.00  0.00    -0.238 NA
ATOM      4  C   UNL d   1     -24.637  23.611  22.680  0.00  0.00     0.162 A 
ATOM      5  N   UNL d   1     -25.232  24.403  23.562  0.00  0.00    -0.238 NA
ATOM      6  C   UNL d   1     -26.378  24.055  24.119  0.00  0.00     0.150 A 
ENDROOT
BRANCH   1   7
ATOM      7  N   UNL d   1     -28.172  22.436  24.336  0.00  0.00    -0.353 N 
ATOM      8  H   UNL d   1     -28.223  22.244  25.285  0.00  0.00     0.166 HD
BRANCH   7   9
ATOM      9  C   UNL d   1     -29.304  22.311  23.541  0.00  0.00     0.049 A 
ATOM     10  C   UNL d   1     -30.509  21.847  24.094  0.00  0.00     0.064 A 
ATOM     11  C   UNL d   1     -31.640  21.726  23.283  0.00  0.00     0.028 A 
ATOM     12  C   UNL d   1     -31.567  22.062  21.948  0.00  0.00    -0.053 A 
ATOM     13  C   UNL d   1     -30.376  22.515  21.404  0.00  0.00     0.010 A 
ATOM     14  C   UNL d   1     -29.251  22.644  22.193  0.00  0.00     0.031 A 
BRANCH  10  15
ATOM     15  C   UNL d   1     -30.578  21.491  25.522  0.00  0.00     0.178 C 
ATOM     16  O   UNL d   1     -31.449  21.964  26.225  0.00  0.00    -0.646 OA
BRANCH  15  17
ATOM     17  O   UNL d   1     -29.674  20.641  26.049  0.00  0.00    -0.773 OA
ATOM     18  H   UNL d   1     -30.002  19.993  26.688  0.00  0.00     0.167 HD
ENDBRANCH  15  17
ENDBRANCH  10  15
BRANCH  12  19
ATOM     19  C   UNL d   1     -32.788  21.930  21.076  0.00  0.00     0.018 A 
ATOM     20  C   UNL d   1     -34.148  22.220  21.715  0.00  0.00     0.010 A 
ATOM     21  C   UNL d   1     -33.752  20.781  21.378  0.00  0.00     0.010 A 
ENDBRANCH  12  19
ENDBRANCH   7   9
ENDBRANCH   1   7
BRANCH   4  22
ATOM     22  C   UNL d   1     -23.351  24.038  22.079  0.00  0.00     0.051 A 
ATOM     23  C   UNL d   1     -23.191  24.036  20.692  0.00  0.00     0.130 A 
ATOM     24  C   UNL d   1     -21.990  24.440  20.138  0.00  0.00     0.044 A 
ATOM     25  F   UNL d   1     -24.209  23.647  19.893  0.00  0.00    -0.205 F 
ATOM     26  C   UNL d   1     -20.947  24.834  20.955  0.00  0.00     0.019 A 
ATOM     27  C   UNL d   1     -21.099  24.831  22.330  0.00  0.00     0.049 A 
ATOM     28  C   UNL d   1     -22.294  24.436  22.895  0.00  0.00     0.034 A 
BRANCH  27  29
ATOM     29  C   UNL d   1     -19.956  25.262  23.213  0.00  0.00     0.417 C 
ATOM     30  F   UNL d   1     -19.748  24.300  24.209  0.00  0.00    -0.166 F 
ATOM     31  F   UNL d   1     -18.796  25.395  22.443  0.00  0.00    -0.166 F 
ATOM     32  F   UNL d   1     -20.264  26.490  23.809  0.00  0.00    -0.166 F 
ENDBRANCH  27  29
ENDBRANCH   4  22
TORSDOF 7
ENDMDL
