MODEL 1
REMARK VINA RESULT:     -11.5      0.000      0.000
REMARK  7 active torsions:
REMARK  status: ('A' for Active; 'I' for Inactive)
REMARK    1  A    between atoms: C_4  and  C_5 
REMARK    2  A    between atoms: C_9  and  O_10 
REMARK    3  A    between atoms: O_10  and  C_11 
REMARK    4  A    between atoms: C_18  and  N_19 
REMARK       I    between atoms: N_19  and  C_20 
REMARK    5  A    between atoms: C_20  and  C_22 
REMARK    6  A    between atoms: C_23  and  C_24 
REMARK    7  A    between atoms: C_24  and  O_26 
ROOT
ATOM      1  C   UNL d   1     -25.797  21.951  21.378  0.00  0.00     0.050 C 
ATOM      2  C   UNL d   1     -26.536  22.322  22.638  0.00  0.00    -0.034 A 
ATOM      3  C   UNL d   1     -27.850  21.943  22.803  0.00  0.00     0.021 A 
ATOM      4  C   UNL d   1     -28.533  22.285  23.969  0.00  0.00    -0.025 A 
ATOM      5  C   UNL d   1     -27.881  23.006  24.970  0.00  0.00     0.014 A 
ATOM      6  C   UNL d   1     -26.568  23.387  24.799  0.00  0.00     0.031 A 
ATOM      7  C   UNL d   1     -25.889  23.043  23.635  0.00  0.00     0.041 A 
ENDROOT
BRANCH   7   8
ATOM      8  N   UNL d   1     -24.557  23.425  23.466  0.00  0.00    -0.323 N 
ATOM      9  C   UNL d   1     -24.236  24.731  23.379  0.00  0.00     0.253 C 
ATOM     10  O   UNL d   1     -25.096  25.579  23.521  0.00  0.00    -0.268 OA
ATOM     11  H   UNL d   1     -23.862  22.751  23.412  0.00  0.00     0.169 HD
BRANCH   9  12
ATOM     12  C   UNL d   1     -22.841  25.133  23.111  0.00  0.00     0.023 C 
ATOM     13  C   UNL d   1     -21.925  25.787  24.118  0.00  0.00     0.045 C 
ATOM     14  C   UNL d   1     -20.503  25.612  23.533  0.00  0.00     0.010 C 
ATOM     15  C   UNL d   1     -20.797  25.495  22.020  0.00  0.00     0.046 C 
ATOM     16  C   UNL d   1     -22.213  24.974  21.938  0.00  0.00     0.027 C 
BRANCH  16  17
ATOM     17  C   UNL d   1     -22.818  24.372  20.735  0.00  0.00     0.172 C 
ATOM     18  O   UNL d   1     -23.062  23.182  20.710  0.00  0.00    -0.646 OA
BRANCH  17  19
ATOM     19  O   UNL d   1     -23.101  25.141  19.666  0.00  0.00    -0.773 OA
ATOM     20  H   UNL d   1     -22.993  24.737  18.794  0.00  0.00     0.167 HD
ENDBRANCH  17  19
ENDBRANCH  16  17
ENDBRANCH   9  12
ENDBRANCH   7   8
BRANCH   4  21
ATOM     21  C   UNL d   1     -29.948  21.880  24.148  0.00  0.00    -0.023 A 
ATOM     22  C   UNL d   1     -30.927  22.356  23.278  0.00  0.00     0.049 A 
ATOM     23  C   UNL d   1     -32.247  21.974  23.451  0.00  0.00     0.079 A 
ATOM     24  C   UNL d   1     -32.592  21.120  24.488  0.00  0.00     0.037 A 
ATOM     25  C   UNL d   1     -31.622  20.647  25.352  0.00  0.00     0.004 A 
ATOM     26  C   UNL d   1     -30.303  21.017  25.184  0.00  0.00     0.012 A 
BRANCH  23  27
ATOM     27  O   UNL d   1     -33.205  22.437  22.605  0.00  0.00    -0.255 OA
BRANCH  27  28
ATOM     28  C   UNL d   1     -33.303  21.803  21.328  0.00  0.00     0.530 C 
ATOM     29  F   UNL d   1     -34.360  22.369  20.607  0.00  0.00    -0.144 F 
ATOM     30  F   UNL d   1     -32.108  21.983  20.624  0.00  0.00    -0.144 F 
ATOM     31  F   UNL d   1     -33.540  20.434  21.504  0.00  0.00    -0.144 F 
ENDBRANCH  27  28
ENDBRANCH  23  27
ENDBRANCH   4  21
TORSDOF 7
ENDMDL
