MODEL 1
REMARK VINA RESULT:     -12.2      0.000      0.000
REMARK  6 active torsions:
REMARK  status: ('A' for Active; 'I' for Inactive)
REMARK    1  A    between atoms: C_2  and  O_3 
REMARK    2  A    between atoms: C_2  and  C_4 
REMARK    3  A    between atoms: C_5  and  O_6 
REMARK    4  A    between atoms: C_7  and  C_8 
REMARK    5  A    between atoms: C_11  and  S_12 
REMARK    6  A    between atoms: S_12  and  C_13 
ROOT
ATOM      1  C   UNL d   1     -30.373  21.451  24.513  0.00  0.00     0.085 A 
ATOM      2  C   UNL d   1     -29.014  21.716  24.339  0.00  0.00     0.113 A 
ATOM      3  C   UNL d   1     -28.550  22.127  23.071  0.00  0.00     0.102 A 
ATOM      4  N   UNL d   1     -29.358  22.270  22.042  0.00  0.00    -0.245 NA
ATOM      5  C   UNL d   1     -30.669  22.037  22.122  0.00  0.00     0.069 A 
ATOM      6  C   UNL d   1     -31.502  22.200  21.000  0.00  0.00     0.035 A 
ATOM      7  C   UNL d   1     -32.837  21.962  21.108  0.00  0.00     0.044 A 
ATOM      8  C   UNL d   1     -33.399  21.547  22.316  0.00  0.00     0.117 A 
ATOM      9  F   UNL d   1     -34.727  21.313  22.391  0.00  0.00    -0.206 F 
ATOM     10  C   UNL d   1     -32.619  21.378  23.426  0.00  0.00     0.057 A 
ATOM     11  C   UNL d   1     -31.245  21.619  23.348  0.00  0.00     0.015 A 
ENDROOT
BRANCH   3  12
ATOM     12  C   UNL d   1     -27.108  22.407  22.893  0.00  0.00    -0.004 A 
ATOM     13  C   UNL d   1     -26.382  21.737  21.906  0.00  0.00     0.015 A 
ATOM     14  C   UNL d   1     -25.040  21.999  21.742  0.00  0.00     0.020 A 
ATOM     15  C   UNL d   1     -24.407  22.931  22.559  0.00  0.00     0.005 A 
ATOM     16  C   UNL d   1     -25.128  23.600  23.544  0.00  0.00     0.020 A 
ATOM     17  C   UNL d   1     -26.472  23.345  23.707  0.00  0.00     0.015 A 
BRANCH  15  18
ATOM     18  S   UNL d   1     -22.690  23.266  22.346  0.00  0.00    -0.091 SA
BRANCH  18  19
ATOM     19  C   UNL d   1     -22.465  24.771  23.232  0.00  0.00     0.005 A 
ATOM     20  C   UNL d   1     -21.524  24.845  24.251  0.00  0.00     0.019 A 
ATOM     21  C   UNL d   1     -21.350  26.027  24.943  0.00  0.00     0.001 A 
ATOM     22  C   UNL d   1     -22.111  27.137  24.623  0.00  0.00     0.000 A 
ATOM     23  C   UNL d   1     -23.049  27.067  23.610  0.00  0.00     0.001 A 
ATOM     24  C   UNL d   1     -23.225  25.889  22.910  0.00  0.00     0.019 A 
ENDBRANCH  18  19
ENDBRANCH  15  18
ENDBRANCH   3  12
BRANCH   2  25
ATOM     25  O   UNL d   1     -28.151  21.581  25.374  0.00  0.00    -0.357 OA
ATOM     26  H   UNL d   1     -28.388  20.877  25.994  0.00  0.00     0.217 HD
ENDBRANCH   2  25
BRANCH   1  27
ATOM     27  C   UNL d   1     -30.909  21.020  25.815  0.00  0.00     0.180 C 
ATOM     28  O   UNL d   1     -31.672  21.740  26.428  0.00  0.00    -0.646 OA
BRANCH  27  29
ATOM     29  O   UNL d   1     -30.552  19.825  26.328  0.00  0.00    -0.773 OA
ATOM     30  H   UNL d   1     -31.262  19.192  26.502  0.00  0.00     0.167 HD
ENDBRANCH  27  29
ENDBRANCH   1  27
TORSDOF 6
ENDMDL
