MODEL 1
REMARK VINA RESULT:      -9.8      0.000      0.000
REMARK  7 active torsions:
REMARK  status: ('A' for Active; 'I' for Inactive)
REMARK    1  A    between atoms: N_2  and  C_3 
REMARK    2  A    between atoms: N_5  and  C_6 
REMARK    3  A    between atoms: C_8  and  O_9 
REMARK    4  A    between atoms: O_9  and  C_10 
REMARK    5  A    between atoms: C_10  and  C_12 
REMARK    6  A    between atoms: C_16  and  C_17 
REMARK       I    between atoms: C_17  and  N_19 
REMARK    7  A    between atoms: N_19  and  C_20 
ROOT
ATOM      1  C   UNL d   1     -26.794  23.368  23.757  0.00  0.00     0.105 A 
ATOM      2  C   UNL d   1     -25.928  22.859  22.797  0.00  0.00     0.073 A 
ATOM      3  C   UNL d   1     -24.669  23.409  22.640  0.00  0.00     0.087 A 
ATOM      4  C   UNL d   1     -24.265  24.474  23.461  0.00  0.00     0.068 A 
ATOM      5  C   UNL d   1     -25.141  24.977  24.428  0.00  0.00     0.064 A 
ATOM      6  C   UNL d   1     -26.394  24.426  24.573  0.00  0.00     0.146 A 
ATOM      7  F   UNL d   1     -27.241  24.912  25.508  0.00  0.00    -0.204 F 
ENDROOT
BRANCH   4   8
ATOM      8  C   UNL d   1     -22.922  25.059  23.304  0.00  0.00     0.259 C 
ATOM      9  O   UNL d   1     -22.774  26.074  22.649  0.00  0.00    -0.267 OA
ATOM     10  N   UNL d   1     -21.859  24.471  23.886  0.00  0.00    -0.318 N 
ATOM     11  H   UNL d   1     -21.983  23.690  24.448  0.00  0.00     0.169 HD
BRANCH  10  12
ATOM     12  C   UNL d   1     -20.574  24.988  23.679  0.00  0.00     0.113 A 
ATOM     13  C   UNL d   1     -20.085  25.993  24.506  0.00  0.00     0.146 A 
ATOM     14  C   UNL d   1     -18.815  26.500  24.299  0.00  0.00     0.045 A 
ATOM     15  F   UNL d   1     -20.851  26.475  25.509  0.00  0.00    -0.204 F 
ATOM     16  C   UNL d   1     -18.031  26.008  23.272  0.00  0.00     0.006 A 
ATOM     17  C   UNL d   1     -18.512  25.008  22.448  0.00  0.00     0.045 A 
ATOM     18  C   UNL d   1     -19.780  24.492  22.652  0.00  0.00     0.146 A 
ATOM     19  F   UNL d   1     -20.247  23.510  21.849  0.00  0.00    -0.204 F 
ENDBRANCH  10  12
ENDBRANCH   4   8
BRANCH   3  20
ATOM     20  O   UNL d   1     -23.824  22.916  21.700  0.00  0.00    -0.336 OA
BRANCH  20  21
ATOM     21  C   UNL d   1     -23.960  23.426  20.373  0.00  0.00     0.232 C 
ATOM     22  C   UNL d   1     -22.593  23.878  19.856  0.00  0.00     0.049 C 
BRANCH  21  23
ATOM     23  C   UNL d   1     -24.515  22.330  19.460  0.00  0.00     0.413 C 
ATOM     24  F   UNL d   1     -23.681  21.208  19.517  0.00  0.00    -0.168 F 
ATOM     25  F   UNL d   1     -25.801  21.977  19.882  0.00  0.00    -0.168 F 
ATOM     26  F   UNL d   1     -24.569  22.803  18.145  0.00  0.00    -0.168 F 
ENDBRANCH  21  23
ENDBRANCH  20  21
ENDBRANCH   3  20
BRANCH   1  27
ATOM     27  N   UNL d   1     -28.066  22.815  23.908  0.00  0.00    -0.163 N 
ATOM     28  N   UNL d   1     -29.149  22.971  23.032  0.00  0.00     0.029 NA
ATOM     29  C   UNL d   1     -30.157  22.304  23.514  0.00  0.00     0.723 A 
ATOM     30  N   UNL d   1     -29.769  21.708  24.692  0.00  0.00    -0.132 N 
ATOM     31  C   UNL d   1     -28.480  22.029  24.924  0.00  0.00     0.364 A 
ATOM     32  C   UNL d   1     -30.613  20.873  25.549  0.00  0.00     0.180 C 
ATOM     33  O   UNL d   1     -27.811  21.674  25.877  0.00  0.00    -0.244 OA
BRANCH  29  34
ATOM     34  N   UNL d   1     -31.415  22.212  22.938  0.00  0.00    -0.227 N 
ATOM     35  C   UNL d   1     -31.550  22.147  21.481  0.00  0.00     0.165 C 
ATOM     36  H   UNL d   1     -32.205  22.190  23.501  0.00  0.00     0.177 HD
ENDBRANCH  29  34
ENDBRANCH   1  27
TORSDOF 7
ENDMDL
