MODEL 1
REMARK VINA RESULT:     -10.6      0.000      0.000
REMARK  6 active torsions:
REMARK  status: ('A' for Active; 'I' for Inactive)
REMARK    1  A    between atoms: C_8  and  N_9 
REMARK       I    between atoms: N_9  and  C_10 
REMARK    2  A    between atoms: C_10  and  C_12 
REMARK    3  A    between atoms: C_16  and  N_17 
REMARK    4  A    between atoms: C_28  and  O_29 
REMARK    5  A    between atoms: O_29  and  C_30 
REMARK    6  A    between atoms: C_30  and  C_32 
ROOT
ATOM      1  C   UNL d   1     -24.199  24.614  23.621  0.00  0.00     0.068 A 
ATOM      2  C   UNL d   1     -25.104  25.133  24.553  0.00  0.00     0.064 A 
ATOM      3  C   UNL d   1     -26.350  24.565  24.691  0.00  0.00     0.146 A 
ATOM      4  F   UNL d   1     -27.226  25.070  25.588  0.00  0.00    -0.204 F 
ATOM      5  C   UNL d   1     -26.710  23.465  23.912  0.00  0.00     0.104 A 
ATOM      6  C   UNL d   1     -25.815  22.940  22.989  0.00  0.00     0.073 A 
ATOM      7  C   UNL d   1     -24.562  23.508  22.839  0.00  0.00     0.087 A 
ENDROOT
BRANCH   1   8
ATOM      8  C   UNL d   1     -22.867  25.223  23.467  0.00  0.00     0.259 C 
ATOM      9  N   UNL d   1     -21.795  24.656  24.054  0.00  0.00    -0.322 N 
ATOM     10  H   UNL d   1     -21.885  23.804  24.509  0.00  0.00     0.169 HD
ATOM     11  O   UNL d   1     -22.734  26.239  22.810  0.00  0.00    -0.267 OA
BRANCH   9  12
ATOM     12  C   UNL d   1     -20.552  25.295  24.007  0.00  0.00     0.043 A 
ATOM     13  C   UNL d   1     -19.612  24.920  23.056  0.00  0.00     0.003 A 
ATOM     14  C   UNL d   1     -19.930  23.824  22.073  0.00  0.00     0.054 C 
ATOM     15  C   UNL d   1     -18.383  25.554  23.014  0.00  0.00     0.124 A 
ATOM     16  F   UNL d   1     -17.467  25.191  22.090  0.00  0.00    -0.205 F 
ATOM     17  C   UNL d   1     -18.092  26.562  23.919  0.00  0.00     0.043 A 
ATOM     18  C   UNL d   1     -19.027  26.937  24.865  0.00  0.00     0.005 A 
ATOM     19  C   UNL d   1     -20.255  26.307  24.913  0.00  0.00     0.030 A 
ENDBRANCH   9  12
ENDBRANCH   1   8
BRANCH   7  20
ATOM     20  O   UNL d   1     -23.688  22.996  21.936  0.00  0.00    -0.336 OA
BRANCH  20  21
ATOM     21  C   UNL d   1     -23.953  23.256  20.556  0.00  0.00     0.232 C 
ATOM     22  C   UNL d   1     -22.658  23.674  19.857  0.00  0.00     0.049 C 
BRANCH  21  23
ATOM     23  C   UNL d   1     -24.503  21.990  19.895  0.00  0.00     0.413 C 
ATOM     24  F   UNL d   1     -24.215  20.882  20.699  0.00  0.00    -0.168 F 
ATOM     25  F   UNL d   1     -25.889  22.108  19.743  0.00  0.00    -0.168 F 
ATOM     26  F   UNL d   1     -23.909  21.823  18.640  0.00  0.00    -0.168 F 
ENDBRANCH  21  23
ENDBRANCH  20  21
ENDBRANCH   7  20
BRANCH   5  27
ATOM     27  N   UNL d   1     -27.974  22.890  24.061  0.00  0.00    -0.178 N 
ATOM     28  C   UNL d   1     -28.382  22.109  25.086  0.00  0.00     0.351 A 
ATOM     29  N   UNL d   1     -29.664  21.793  24.860  0.00  0.00    -0.280 N 
ATOM     30  O   UNL d   1     -27.710  21.761  26.040  0.00  0.00    -0.244 OA
ATOM     31  C   UNL d   1     -30.044  22.349  23.652  0.00  0.00     0.155 A 
ATOM     32  C   UNL d   1     -30.579  21.012  25.701  0.00  0.00     0.161 C 
ATOM     33  N   UNL d   1     -29.052  23.009  23.170  0.00  0.00    -0.147 NA
ATOM     34  C   UNL d   1     -31.423  22.156  23.064  0.00  0.00     0.248 C 
ATOM     35  O   UNL d   1     -32.281  21.684  24.113  0.00  0.00    -0.382 OA
ATOM     36  C   UNL d   1     -31.756  20.559  24.826  0.00  0.00     0.188 C 
ENDBRANCH   5  27
TORSDOF 6
ENDMDL
