MODEL 1
REMARK VINA RESULT:     -10.1      0.000      0.000
REMARK  8 active torsions:
REMARK  status: ('A' for Active; 'I' for Inactive)
REMARK    1  A    between atoms: C_2  and  O_3 
REMARK    2  A    between atoms: C_2  and  C_4 
REMARK    3  A    between atoms: N_6  and  C_7 
REMARK    4  A    between atoms: C_9  and  O_10 
REMARK    5  A    between atoms: O_10  and  C_11 
REMARK    6  A    between atoms: C_11  and  C_13 
REMARK    7  A    between atoms: C_17  and  C_18 
REMARK       I    between atoms: C_18  and  N_20 
REMARK    8  A    between atoms: N_20  and  C_21 
ROOT
ATOM      1  C   UNL d   1     -26.776  23.286  23.727  0.00  0.00     0.104 A 
ATOM      2  C   UNL d   1     -25.894  22.802  22.770  0.00  0.00     0.073 A 
ATOM      3  C   UNL d   1     -24.644  23.376  22.626  0.00  0.00     0.087 A 
ATOM      4  C   UNL d   1     -24.266  24.441  23.457  0.00  0.00     0.068 A 
ATOM      5  C   UNL d   1     -25.157  24.920  24.422  0.00  0.00     0.064 A 
ATOM      6  C   UNL d   1     -26.402  24.345  24.555  0.00  0.00     0.146 A 
ATOM      7  F   UNL d   1     -27.262  24.807  25.488  0.00  0.00    -0.204 F 
ENDROOT
BRANCH   4   8
ATOM      8  C   UNL d   1     -22.933  25.054  23.314  0.00  0.00     0.259 C 
ATOM      9  O   UNL d   1     -22.798  26.068  22.656  0.00  0.00    -0.267 OA
ATOM     10  N   UNL d   1     -21.865  24.491  23.911  0.00  0.00    -0.318 N 
ATOM     11  H   UNL d   1     -21.980  23.710  24.475  0.00  0.00     0.169 HD
BRANCH  10  12
ATOM     12  C   UNL d   1     -20.587  25.033  23.717  0.00  0.00     0.113 A 
ATOM     13  C   UNL d   1     -20.134  26.059  24.539  0.00  0.00     0.146 A 
ATOM     14  C   UNL d   1     -18.872  26.591  24.345  0.00  0.00     0.045 A 
ATOM     15  F   UNL d   1     -20.925  26.535  25.525  0.00  0.00    -0.204 F 
ATOM     16  C   UNL d   1     -18.061  26.103  23.335  0.00  0.00     0.006 A 
ATOM     17  C   UNL d   1     -18.509  25.083  22.517  0.00  0.00     0.045 A 
ATOM     18  C   UNL d   1     -19.768  24.542  22.708  0.00  0.00     0.146 A 
ATOM     19  F   UNL d   1     -20.202  23.541  21.911  0.00  0.00    -0.204 F 
ENDBRANCH  10  12
ENDBRANCH   4   8
BRANCH   3  20
ATOM     20  O   UNL d   1     -23.784  22.908  21.687  0.00  0.00    -0.336 OA
BRANCH  20  21
ATOM     21  C   UNL d   1     -23.920  23.433  20.365  0.00  0.00     0.232 C 
ATOM     22  C   UNL d   1     -22.549  23.876  19.848  0.00  0.00     0.049 C 
BRANCH  21  23
ATOM     23  C   UNL d   1     -24.487  22.351  19.442  0.00  0.00     0.413 C 
ATOM     24  F   UNL d   1     -23.647  21.233  19.463  0.00  0.00    -0.168 F 
ATOM     25  F   UNL d   1     -25.763  21.985  19.883  0.00  0.00    -0.168 F 
ATOM     26  F   UNL d   1     -24.569  22.848  18.136  0.00  0.00    -0.168 F 
ENDBRANCH  21  23
ENDBRANCH  20  21
ENDBRANCH   3  20
BRANCH   1  27
ATOM     27  N   UNL d   1     -28.039  22.708  23.867  0.00  0.00    -0.178 N 
ATOM     28  N   UNL d   1     -29.083  22.756  22.932  0.00  0.00    -0.146 NA
ATOM     29  C   UNL d   1     -30.092  22.108  23.421  0.00  0.00     0.159 A 
ATOM     30  N   UNL d   1     -29.747  21.618  24.656  0.00  0.00    -0.286 N 
ATOM     31  C   UNL d   1     -28.480  21.993  24.923  0.00  0.00     0.351 A 
ATOM     32  C   UNL d   1     -30.609  20.824  25.535  0.00  0.00     0.163 C 
ATOM     33  O   UNL d   1     -27.848  21.734  25.931  0.00  0.00    -0.244 OA
BRANCH  29  34
ATOM     34  C   UNL d   1     -31.423  21.917  22.742  0.00  0.00     0.185 C 
ATOM     35  C   UNL d   1     -31.277  22.198  21.245  0.00  0.00     0.048 C 
BRANCH  34  36
ATOM     36  O   UNL d   1     -32.378  22.818  23.304  0.00  0.00    -0.388 OA
ATOM     37  H   UNL d   1     -32.825  23.375  22.651  0.00  0.00     0.210 HD
ENDBRANCH  34  36
ENDBRANCH  29  34
ENDBRANCH   1  27
TORSDOF 8
ENDMDL
