MODEL 1
REMARK VINA RESULT:     -10.1      0.000      0.000
REMARK  8 active torsions:
REMARK  status: ('A' for Active; 'I' for Inactive)
REMARK    1  A    between atoms: O_2  and  C_3 
REMARK    2  A    between atoms: C_7  and  N_8 
REMARK       I    between atoms: N_8  and  C_9 
REMARK    3  A    between atoms: C_9  and  C_11 
REMARK    4  A    between atoms: C_15  and  N_16 
REMARK    5  A    between atoms: C_27  and  O_28 
REMARK    6  A    between atoms: O_28  and  C_29 
REMARK    7  A    between atoms: C_29  and  C_31 
REMARK    8  A    between atoms: C_35  and  O_36 
ROOT
ATOM      1  C   UNL d   1     -24.296  24.428  23.441  0.00  0.00     0.068 A 
ATOM      2  C   UNL d   1     -25.163  24.952  24.406  0.00  0.00     0.064 A 
ATOM      3  C   UNL d   1     -26.416  24.405  24.574  0.00  0.00     0.146 A 
ATOM      4  F   UNL d   1     -27.252  24.911  25.506  0.00  0.00    -0.204 F 
ATOM      5  C   UNL d   1     -26.822  23.330  23.784  0.00  0.00     0.104 A 
ATOM      6  C   UNL d   1     -25.966  22.800  22.828  0.00  0.00     0.073 A 
ATOM      7  C   UNL d   1     -24.707  23.347  22.648  0.00  0.00     0.087 A 
ENDROOT
BRANCH   1   8
ATOM      8  C   UNL d   1     -22.955  25.010  23.260  0.00  0.00     0.259 C 
ATOM      9  N   UNL d   1     -21.884  24.429  23.835  0.00  0.00    -0.320 N 
ATOM     10  H   UNL d   1     -22.004  23.661  24.417  0.00  0.00     0.169 HD
ATOM     11  O   UNL d   1     -22.815  26.016  22.592  0.00  0.00    -0.267 OA
BRANCH   9  12
ATOM     12  C   UNL d   1     -20.599  24.933  23.595  0.00  0.00     0.071 A 
ATOM     13  C   UNL d   1     -19.887  24.516  22.480  0.00  0.00     0.032 A 
ATOM     14  C   UNL d   1     -18.621  25.016  22.240  0.00  0.00     0.005 A 
ATOM     15  C   UNL d   1     -18.056  25.924  23.115  0.00  0.00     0.040 A 
ATOM     16  C   UNL d   1     -18.758  26.343  24.236  0.00  0.00     0.103 A 
ATOM     17  C   UNL d   1     -20.033  25.847  24.478  0.00  0.00     0.128 A 
BRANCH  16  18
ATOM     18  O   UNL d   1     -18.200  27.237  25.095  0.00  0.00    -0.353 OA
ATOM     19  C   UNL d   1     -17.204  26.739  25.992  0.00  0.00     0.210 C 
ENDBRANCH  16  18
BRANCH  17  20
ATOM     20  O   UNL d   1     -20.726  26.255  25.576  0.00  0.00    -0.351 OA
ATOM     21  C   UNL d   1     -21.410  27.507  25.482  0.00  0.00     0.210 C 
ENDBRANCH  17  20
ENDBRANCH   9  12
ENDBRANCH   1   8
BRANCH   7  22
ATOM     22  O   UNL d   1     -23.870  22.833  21.711  0.00  0.00    -0.336 OA
BRANCH  22  23
ATOM     23  C   UNL d   1     -23.951  23.388  20.397  0.00  0.00     0.232 C 
ATOM     24  C   UNL d   1     -22.554  23.803  19.932  0.00  0.00     0.049 C 
BRANCH  23  25
ATOM     25  C   UNL d   1     -24.517  22.341  19.435  0.00  0.00     0.413 C 
ATOM     26  F   UNL d   1     -25.796  21.963  19.860  0.00  0.00    -0.168 F 
ATOM     27  F   UNL d   1     -24.595  22.884  18.148  0.00  0.00    -0.168 F 
ATOM     28  F   UNL d   1     -23.681  21.220  19.419  0.00  0.00    -0.168 F 
ENDBRANCH  23  25
ENDBRANCH  22  23
ENDBRANCH   7  22
BRANCH   5  29
ATOM     29  N   UNL d   1     -28.094  22.779  23.959  0.00  0.00    -0.178 N 
ATOM     30  C   UNL d   1     -28.498  22.011  24.995  0.00  0.00     0.351 A 
ATOM     31  N   UNL d   1     -29.793  21.716  24.794  0.00  0.00    -0.284 N 
ATOM     32  O   UNL d   1     -27.814  21.652  25.937  0.00  0.00    -0.244 OA
ATOM     33  C   UNL d   1     -30.185  22.277  23.597  0.00  0.00     0.131 A 
ATOM     34  C   UNL d   1     -30.682  20.953  25.678  0.00  0.00     0.135 C 
ATOM     35  N   UNL d   1     -29.187  22.918  23.091  0.00  0.00    -0.149 NA
ATOM     36  C   UNL d   1     -31.571  22.127  23.013  0.00  0.00     0.081 C 
ATOM     37  C   UNL d   1     -32.514  21.683  24.140  0.00  0.00     0.009 C 
ATOM     38  C   UNL d   1     -31.895  20.484  24.866  0.00  0.00     0.021 C 
ENDBRANCH   5  29
TORSDOF 8
ENDMDL
