MODEL 1
REMARK VINA RESULT:      -9.3      0.000      0.000
REMARK  9 active torsions:
REMARK  status: ('A' for Active; 'I' for Inactive)
REMARK    1  A    between atoms: C_2  and  C_3 
REMARK    2  A    between atoms: C_3  and  C_4 
REMARK    3  A    between atoms: C_3  and  N_7 
REMARK    4  A    between atoms: C_4  and  O_5 
REMARK    5  A    between atoms: C_9  and  C_10 
REMARK    6  A    between atoms: C_15  and  N_16 
REMARK    7  A    between atoms: C_18  and  C_19 
REMARK    8  A    between atoms: C_19  and  O_20 
REMARK    9  A    between atoms: N_21  and  C_22 
ROOT
ATOM      1  N   UNL d   1     -31.402  21.430  24.399  0.00  0.00    -0.317 N 
ATOM      2  C   UNL d   1     -31.182  21.720  23.081  0.00  0.00     0.103 A 
ATOM      3  C   UNL d   1     -30.019  22.223  22.640  0.00  0.00    -0.028 A 
ATOM      4  C   UNL d   1     -28.937  22.474  23.594  0.00  0.00    -0.010 A 
ATOM      5  C   UNL d   1     -27.707  22.994  23.194  0.00  0.00     0.048 A 
ATOM      6  C   UNL d   1     -26.720  23.211  24.139  0.00  0.00     0.103 A 
ATOM      7  C   UNL d   1     -26.947  22.907  25.486  0.00  0.00     0.146 A 
ATOM      8  F   UNL d   1     -25.969  23.120  26.392  0.00  0.00    -0.204 F 
ATOM      9  C   UNL d   1     -28.149  22.402  25.895  0.00  0.00     0.062 A 
ATOM     10  C   UNL d   1     -29.160  22.175  24.959  0.00  0.00     0.046 A 
ATOM     11  C   UNL d   1     -30.464  21.628  25.345  0.00  0.00     0.259 A 
ATOM     12  O   UNL d   1     -30.697  21.356  26.509  0.00  0.00    -0.267 OA
ENDROOT
BRANCH   6  13
ATOM     13  N   UNL d   1     -25.484  23.733  23.745  0.00  0.00    -0.178 N 
ATOM     14  C   UNL d   1     -25.131  25.035  23.747  0.00  0.00     0.351 A 
ATOM     15  N   UNL d   1     -23.863  25.108  23.293  0.00  0.00    -0.283 N 
ATOM     16  O   UNL d   1     -25.828  25.972  24.091  0.00  0.00    -0.244 OA
ATOM     17  C   UNL d   1     -23.428  23.835  23.018  0.00  0.00     0.154 A 
ATOM     18  N   UNL d   1     -24.382  23.002  23.282  0.00  0.00    -0.147 NA
BRANCH  15  19
ATOM     19  C   UNL d   1     -23.081  26.337  23.128  0.00  0.00     0.131 C 
ATOM     20  C   UNL d   1     -22.354  26.658  24.435  0.00  0.00     0.027 C 
ENDBRANCH  15  19
BRANCH  17  21
ATOM     21  C   UNL d   1     -22.064  23.469  22.493  0.00  0.00     0.244 C 
BRANCH  21  22
ATOM     22  O   UNL d   1     -21.980  23.808  21.107  0.00  0.00    -0.393 OA
ATOM     23  H   UNL d   1     -21.131  23.589  20.700  0.00  0.00     0.209 HD
ENDBRANCH  21  22
ENDBRANCH  17  21
ENDBRANCH   6  13
BRANCH   3  24
ATOM     24  C   UNL d   1     -29.828  22.526  21.177  0.00  0.00     0.013 C 
ATOM     25  C   UNL d   1     -28.719  21.635  20.611  0.00  0.00     0.015 C 
ATOM     26  C   UNL d   1     -31.132  22.256  20.425  0.00  0.00     0.015 C 
ENDBRANCH   3  24
BRANCH   1  27
ATOM     27  C   UNL d   1     -32.702  20.883  24.795  0.00  0.00     0.116 C 
BRANCH  27  28
ATOM     28  C   UNL d   1     -33.767  21.316  23.785  0.00  0.00     0.023 C 
ATOM     29  C   UNL d   1     -33.954  20.214  22.740  0.00  0.00     0.007 C 
ENDBRANCH  27  28
BRANCH  27  30
ATOM     30  C   UNL d   1     -32.624  19.356  24.831  0.00  0.00     0.192 C 
BRANCH  30  31
ATOM     31  O   UNL d   1     -32.600  18.912  26.189  0.00  0.00    -0.394 OA
ATOM     32  C   UNL d   1     -31.510  18.040  26.497  0.00  0.00     0.201 C 
ENDBRANCH  30  31
ENDBRANCH  27  30
ENDBRANCH   1  27
TORSDOF 9
ENDMDL
