MODEL 1
REMARK VINA RESULT:      -8.5      0.000      0.000
REMARK  8 active torsions:
REMARK  status: ('A' for Active; 'I' for Inactive)
REMARK    1  A    between atoms: N_4  and  C_5 
REMARK    2  A    between atoms: C_7  and  O_8 
REMARK    3  A    between atoms: O_8  and  C_9 
REMARK    4  A    between atoms: C_9  and  C_11 
REMARK    5  A    between atoms: C_17  and  C_18 
REMARK       I    between atoms: C_18  and  N_20 
REMARK    6  A    between atoms: N_20  and  C_21 
REMARK    7  A    between atoms: C_25  and  C_26 
REMARK    8  A    between atoms: N_36  and  C_37 
ROOT
ATOM      1  C   UNL d   1     -18.095  25.507  23.426  0.00  0.00     0.104 A 
ATOM      2  C   UNL d   1     -19.193  25.740  24.242  0.00  0.00     0.073 A 
ATOM      3  C   UNL d   1     -20.446  25.289  23.863  0.00  0.00     0.087 A 
ATOM      4  C   UNL d   1     -20.599  24.588  22.658  0.00  0.00     0.068 A 
ATOM      5  C   UNL d   1     -19.486  24.353  21.843  0.00  0.00     0.064 A 
ATOM      6  C   UNL d   1     -18.246  24.810  22.227  0.00  0.00     0.146 A 
ATOM      7  F   UNL d   1     -17.171  24.583  21.441  0.00  0.00    -0.204 F 
ENDROOT
BRANCH   4   8
ATOM      8  C   UNL d   1     -21.928  24.099  22.252  0.00  0.00     0.259 C 
ATOM      9  O   UNL d   1     -22.494  24.598  21.297  0.00  0.00    -0.267 OA
ATOM     10  N   UNL d   1     -22.517  23.098  22.936  0.00  0.00    -0.323 N 
ATOM     11  H   UNL d   1     -22.036  22.649  23.648  0.00  0.00     0.169 HD
BRANCH  10  12
ATOM     12  C   UNL d   1     -23.822  22.708  22.619  0.00  0.00     0.035 A 
ATOM     13  C   UNL d   1     -24.882  23.108  23.423  0.00  0.00     0.045 A 
ATOM     14  C   UNL d   1     -26.170  22.722  23.107  0.00  0.00     0.050 A 
ATOM     15  C   UNL d   1     -26.405  21.939  21.992  0.00  0.00     0.016 A 
ATOM     16  C   UNL d   1     -25.352  21.539  21.190  0.00  0.00     0.003 A 
ATOM     17  C   UNL d   1     -24.062  21.926  21.497  0.00  0.00     0.029 A 
BRANCH  14  18
ATOM     18  C   UNL d   1     -27.321  23.155  23.978  0.00  0.00     0.417 C 
ATOM     19  F   UNL d   1     -26.961  24.307  24.688  0.00  0.00    -0.166 F 
ATOM     20  F   UNL d   1     -28.435  23.428  23.179  0.00  0.00    -0.166 F 
ATOM     21  F   UNL d   1     -27.634  22.132  24.880  0.00  0.00    -0.166 F 
ENDBRANCH  14  18
ENDBRANCH  10  12
ENDBRANCH   4   8
BRANCH   3  22
ATOM     22  O   UNL d   1     -21.521  25.520  24.658  0.00  0.00    -0.341 OA
BRANCH  22  23
ATOM     23  C   UNL d   1     -21.995  26.866  24.733  0.00  0.00     0.158 C 
ATOM     24  C   UNL d   1     -23.516  26.880  24.574  0.00  0.00     0.045 C 
BRANCH  23  25
ATOM     25  C   UNL d   1     -21.624  27.456  26.069  0.00  0.00    -0.029 A 
ATOM     26  C   UNL d   1     -21.954  28.767  26.361  0.00  0.00     0.010 A 
ATOM     27  C   UNL d   1     -21.614  29.308  27.587  0.00  0.00     0.001 A 
ATOM     28  C   UNL d   1     -20.944  28.539  28.520  0.00  0.00     0.000 A 
ATOM     29  C   UNL d   1     -20.614  27.229  28.228  0.00  0.00     0.001 A 
ATOM     30  C   UNL d   1     -20.958  26.686  27.003  0.00  0.00     0.010 A 
ENDBRANCH  23  25
ENDBRANCH  22  23
ENDBRANCH   3  22
BRANCH   1  31
ATOM     31  N   UNL d   1     -16.833  25.969  23.809  0.00  0.00    -0.178 N 
ATOM     32  N   UNL d   1     -15.965  25.355  24.721  0.00  0.00    -0.149 NA
ATOM     33  C   UNL d   1     -14.895  26.078  24.809  0.00  0.00     0.127 A 
ATOM     34  C   UNL d   1     -13.700  25.776  25.676  0.00  0.00     0.093 C 
ATOM     35  N   UNL d   1     -15.028  27.169  23.984  0.00  0.00    -0.280 N 
ATOM     36  C   UNL d   1     -16.226  27.091  23.368  0.00  0.00     0.351 A 
ATOM     37  O   UNL d   1     -16.676  27.887  22.565  0.00  0.00    -0.244 OA
BRANCH  35  38
ATOM     38  C   UNL d   1     -14.036  28.230  23.799  0.00  0.00     0.088 C 
ATOM     39  C   UNL d   1     -14.528  29.510  24.477  0.00  0.00     0.032 C 
ATOM     40  C   UNL d   1     -13.838  28.489  22.304  0.00  0.00     0.032 C 
ENDBRANCH  35  38
ENDBRANCH   1  31
TORSDOF 8
ENDMDL
