MODEL 1
REMARK VINA RESULT:     -10.8      0.000      0.000
REMARK  4 active torsions:
REMARK  status: ('A' for Active; 'I' for Inactive)
REMARK    1  A    between atoms: C_4  and  O_5 
REMARK    2  A    between atoms: C_6  and  C_7 
REMARK       I    between atoms: C_7  and  N_9 
REMARK    3  A    between atoms: N_9  and  C_10 
REMARK    4  A    between atoms: C_15  and  C_16 
ROOT
ATOM      1  C   UNL d   1     -26.770  22.446  23.079  0.00  0.00     0.119 A 
ATOM      2  C   UNL d   1     -26.153  23.514  23.722  0.00  0.00     0.185 A 
ATOM      3  F   UNL d   1     -26.781  24.144  24.738  0.00  0.00    -0.200 F 
ATOM      4  C   UNL d   1     -24.897  23.930  23.320  0.00  0.00     0.171 A 
ATOM      5  F   UNL d   1     -24.297  24.968  23.945  0.00  0.00    -0.202 F 
ATOM      6  C   UNL d   1     -24.249  23.278  22.270  0.00  0.00     0.058 A 
ATOM      7  C   UNL d   1     -24.874  22.211  21.624  0.00  0.00     0.171 A 
ATOM      8  F   UNL d   1     -24.252  21.580  20.602  0.00  0.00    -0.202 F 
ATOM      9  C   UNL d   1     -26.127  21.794  22.032  0.00  0.00     0.185 A 
ATOM     10  F   UNL d   1     -26.730  20.757  21.412  0.00  0.00    -0.200 F 
ENDROOT
BRANCH   1  11
ATOM     11  N   UNL d   1     -28.042  22.026  23.488  0.00  0.00    -0.316 N 
ATOM     12  C   UNL d   1     -29.139  22.493  22.860  0.00  0.00     0.281 C 
ATOM     13  O   UNL d   1     -29.024  23.207  21.883  0.00  0.00    -0.265 OA
ATOM     14  H   UNL d   1     -28.133  21.400  24.222  0.00  0.00     0.169 HD
BRANCH  12  15
ATOM     15  C   UNL d   1     -30.482  22.136  23.357  0.00  0.00     0.200 A 
ATOM     16  C   UNL d   1     -30.799  21.723  24.668  0.00  0.00     0.220 A 
ATOM     17  N   UNL d   1     -32.097  21.507  24.689  0.00  0.00    -0.127 NA
ATOM     18  N   UNL d   1     -32.581  21.775  23.402  0.00  0.00    -0.190 N 
ATOM     19  C   UNL d   1     -33.978  21.659  22.976  0.00  0.00     0.205 C 
ATOM     20  N   UNL d   1     -31.600  22.141  22.653  0.00  0.00    -0.145 NA
BRANCH  16  21
ATOM     21  O   UNL d   1     -29.935  21.578  25.706  0.00  0.00    -0.342 OA
ATOM     22  H   UNL d   1     -29.126  22.100  25.620  0.00  0.00     0.219 HD
ENDBRANCH  16  21
ENDBRANCH  12  15
ENDBRANCH   1  11
BRANCH   6  23
ATOM     23  C   UNL d   1     -22.903  23.724  21.837  0.00  0.00    -0.020 A 
ATOM     24  C   UNL d   1     -22.750  24.439  20.650  0.00  0.00     0.012 A 
ATOM     25  C   UNL d   1     -21.494  24.850  20.253  0.00  0.00     0.001 A 
ATOM     26  C   UNL d   1     -20.388  24.554  21.030  0.00  0.00     0.000 A 
ATOM     27  C   UNL d   1     -20.534  23.844  22.208  0.00  0.00     0.001 A 
ATOM     28  C   UNL d   1     -21.784  23.428  22.615  0.00  0.00     0.012 A 
ENDBRANCH   6  23
TORSDOF 4
ENDMDL
