MODEL 1
REMARK VINA RESULT:     -12.8      0.000      0.000
REMARK  6 active torsions:
REMARK  status: ('A' for Active; 'I' for Inactive)
REMARK    1  A    between atoms: C_4  and  C_5 
REMARK    2  A    between atoms: C_5  and  O_7 
REMARK    3  A    between atoms: C_10  and  C_11 
REMARK    4  A    between atoms: C_16  and  C_17 
REMARK    5  A    between atoms: C_21  and  N_22 
REMARK       I    between atoms: N_22  and  C_23 
REMARK    6  A    between atoms: C_23  and  C_25 
ROOT
ATOM      1  C   UNL d   1     -27.086  22.528  22.961  0.00  0.00     0.093 A 
ATOM      2  C   UNL d   1     -26.488  23.604  23.626  0.00  0.00     0.173 A 
ATOM      3  F   UNL d   1     -27.169  24.267  24.586  0.00  0.00    -0.202 F 
ATOM      4  C   UNL d   1     -25.203  23.990  23.298  0.00  0.00     0.170 A 
ATOM      5  F   UNL d   1     -24.626  25.030  23.940  0.00  0.00    -0.202 F 
ATOM      6  C   UNL d   1     -24.499  23.305  22.305  0.00  0.00     0.058 A 
ATOM      7  C   UNL d   1     -25.096  22.234  21.637  0.00  0.00     0.170 A 
ATOM      8  F   UNL d   1     -24.415  21.576  20.673  0.00  0.00    -0.202 F 
ATOM      9  C   UNL d   1     -26.380  21.842  21.966  0.00  0.00     0.173 A 
ATOM     10  F   UNL d   1     -26.954  20.802  21.323  0.00  0.00    -0.202 F 
ENDROOT
BRANCH   6  11
ATOM     11  C   UNL d   1     -23.120  23.721  21.955  0.00  0.00    -0.018 A 
ATOM     12  C   UNL d   1     -22.131  23.754  22.935  0.00  0.00     0.042 A 
ATOM     13  C   UNL d   1     -20.842  24.145  22.601  0.00  0.00     0.035 A 
ATOM     14  C   UNL d   1     -20.542  24.501  21.292  0.00  0.00     0.029 A 
ATOM     15  C   UNL d   1     -21.526  24.472  20.321  0.00  0.00     0.003 A 
ATOM     16  C   UNL d   1     -22.809  24.080  20.644  0.00  0.00     0.012 A 
BRANCH  13  17
ATOM     17  N   UNL d   1     -19.846  24.180  23.583  0.00  0.00    -0.325 N 
ATOM     18  C   UNL d   1     -19.553  25.340  24.205  0.00  0.00     0.255 C 
ATOM     19  O   UNL d   1     -20.208  26.334  23.975  0.00  0.00    -0.271 OA
ATOM     20  H   UNL d   1     -19.365  23.371  23.815  0.00  0.00     0.169 HD
BRANCH  18  21
ATOM     21  C   UNL d   1     -18.410  25.401  25.185  0.00  0.00     0.311 C 
ATOM     22  N   UNL d   1     -17.128  25.271  24.470  0.00  0.00     0.097 N 
ATOM     23  C   UNL d   1     -16.340  26.504  24.686  0.00  0.00     0.271 C 
ATOM     24  H   UNL d   1     -16.619  24.458  24.783  0.00  0.00     0.317 HD
ATOM     25  C   UNL d   1     -16.888  27.096  26.008  0.00  0.00     0.033 C 
ATOM     26  C   UNL d   1     -18.403  26.770  25.898  0.00  0.00     0.047 C 
ENDBRANCH  18  21
ENDBRANCH  13  17
ENDBRANCH   6  11
BRANCH   1  27
ATOM     27  C   UNL d   1     -28.459  22.114  23.309  0.00  0.00     0.145 A 
ATOM     28  N   UNL d   1     -29.506  22.227  22.523  0.00  0.00    -0.227 NA
ATOM     29  C   UNL d   1     -30.598  21.756  23.148  0.00  0.00     0.102 A 
ATOM     30  C   UNL d   1     -31.955  21.641  22.775  0.00  0.00     0.069 A 
ATOM     31  C   UNL d   1     -30.195  21.315  24.422  0.00  0.00     0.064 A 
ATOM     32  C   UNL d   1     -32.869  21.093  23.674  0.00  0.00     0.027 A 
ATOM     33  C   UNL d   1     -32.451  20.667  24.920  0.00  0.00    -0.059 A 
ATOM     34  C   UNL d   1     -33.453  20.078  25.880  0.00  0.00     0.048 C 
ATOM     35  C   UNL d   1     -31.126  20.775  25.296  0.00  0.00     0.038 A 
ATOM     36  N   UNL d   1     -28.834  21.548  24.496  0.00  0.00    -0.338 N 
ATOM     37  H   UNL d   1     -28.255  21.349  25.249  0.00  0.00     0.167 HD
BRANCH  30  38
ATOM     38  C   UNL d   1     -32.401  22.095  21.448  0.00  0.00     0.178 C 
ATOM     39  O   UNL d   1     -33.564  22.400  21.269  0.00  0.00    -0.646 OA
BRANCH  38  40
ATOM     40  O   UNL d   1     -31.520  22.172  20.431  0.00  0.00    -0.773 OA
ATOM     41  H   UNL d   1     -31.355  23.049  20.059  0.00  0.00     0.167 HD
ENDBRANCH  38  40
ENDBRANCH  30  38
ENDBRANCH   1  27
TORSDOF 6
ENDMDL
