MODEL 1
REMARK VINA RESULT:      -9.5      0.000      0.000
REMARK  6 active torsions:
REMARK  status: ('A' for Active; 'I' for Inactive)
REMARK    1  A    between atoms: C_2  and  O_3 
REMARK    2  A    between atoms: C_2  and  C_32 
REMARK    3  A    between atoms: O_3  and  C_4 
REMARK    4  A    between atoms: C_6  and  N_7 
REMARK    5  A    between atoms: C_20  and  C_21 
REMARK       I    between atoms: C_21  and  N_23 
REMARK    6  A    between atoms: N_23  and  C_24 
ROOT
ATOM      1  C   UNL d   1     -26.174  23.123  23.345  0.00  0.00     0.087 A 
ATOM      2  C   UNL d   1     -27.549  22.985  23.409  0.00  0.00     0.073 A 
ATOM      3  C   UNL d   1     -28.214  22.206  22.470  0.00  0.00     0.104 A 
ATOM      4  C   UNL d   1     -27.500  21.558  21.463  0.00  0.00     0.146 A 
ATOM      5  F   UNL d   1     -28.152  20.799  20.556  0.00  0.00    -0.204 F 
ATOM      6  C   UNL d   1     -26.132  21.694  21.387  0.00  0.00     0.064 A 
ATOM      7  C   UNL d   1     -25.454  22.476  22.329  0.00  0.00     0.068 A 
ENDROOT
BRANCH   7   8
ATOM      8  C   UNL d   1     -23.990  22.619  22.255  0.00  0.00     0.259 C 
ATOM      9  O   UNL d   1     -23.278  21.637  22.343  0.00  0.00    -0.267 OA
ATOM     10  N   UNL d   1     -23.440  23.838  22.090  0.00  0.00    -0.318 N 
ATOM     11  H   UNL d   1     -24.001  24.629  22.101  0.00  0.00     0.169 HD
BRANCH  10  12
ATOM     12  C   UNL d   1     -22.056  23.963  21.905  0.00  0.00     0.113 A 
ATOM     13  C   UNL d   1     -21.544  24.231  20.642  0.00  0.00     0.146 A 
ATOM     14  C   UNL d   1     -20.177  24.353  20.463  0.00  0.00     0.045 A 
ATOM     15  F   UNL d   1     -22.379  24.373  19.589  0.00  0.00    -0.204 F 
ATOM     16  C   UNL d   1     -19.322  24.208  21.540  0.00  0.00     0.006 A 
ATOM     17  C   UNL d   1     -19.828  23.941  22.799  0.00  0.00     0.045 A 
ATOM     18  C   UNL d   1     -21.193  23.824  22.986  0.00  0.00     0.146 A 
ATOM     19  F   UNL d   1     -21.687  23.568  24.217  0.00  0.00    -0.204 F 
ENDBRANCH  10  12
ENDBRANCH   7   8
BRANCH   1  20
ATOM     20  O   UNL d   1     -25.524  23.884  24.260  0.00  0.00    -0.341 OA
BRANCH  20  21
ATOM     21  C   UNL d   1     -25.692  25.299  24.165  0.00  0.00     0.158 C 
ATOM     22  C   UNL d   1     -26.527  25.795  25.349  0.00  0.00     0.045 C 
BRANCH  21  23
ATOM     23  C   UNL d   1     -24.342  25.969  24.188  0.00  0.00    -0.029 A 
ATOM     24  C   UNL d   1     -23.873  26.619  23.061  0.00  0.00     0.010 A 
ATOM     25  C   UNL d   1     -22.635  27.232  23.083  0.00  0.00     0.001 A 
ATOM     26  C   UNL d   1     -21.867  27.198  24.231  0.00  0.00     0.000 A 
ATOM     27  C   UNL d   1     -22.336  26.550  25.359  0.00  0.00     0.001 A 
ATOM     28  C   UNL d   1     -23.576  25.940  25.339  0.00  0.00     0.010 A 
ENDBRANCH  21  23
ENDBRANCH  20  21
ENDBRANCH   1  20
BRANCH   3  29
ATOM     29  N   UNL d   1     -29.603  22.068  22.538  0.00  0.00    -0.178 N 
ATOM     30  C   UNL d   1     -30.321  21.728  23.630  0.00  0.00     0.351 A 
ATOM     31  N   UNL d   1     -31.616  21.736  23.275  0.00  0.00    -0.284 N 
ATOM     32  O   UNL d   1     -29.876  21.462  24.731  0.00  0.00    -0.244 OA
ATOM     33  C   UNL d   1     -31.697  22.047  21.933  0.00  0.00     0.131 A 
ATOM     34  C   UNL d   1     -32.778  21.486  24.135  0.00  0.00     0.135 C 
ATOM     35  N   UNL d   1     -30.508  22.254  21.482  0.00  0.00    -0.149 NA
ATOM     36  C   UNL d   1     -32.997  22.113  21.165  0.00  0.00     0.081 C 
ATOM     37  C   UNL d   1     -34.143  22.238  22.178  0.00  0.00     0.009 C 
ATOM     38  C   UNL d   1     -33.982  21.151  23.248  0.00  0.00     0.021 C 
ENDBRANCH   3  29
TORSDOF 6
ENDMDL
