MODEL 1
REMARK VINA RESULT:     -13.2      0.000      0.000
REMARK  4 active torsions:
REMARK  status: ('A' for Active; 'I' for Inactive)
REMARK    1  A    between atoms: C_2  and  O_3 
REMARK    2  A    between atoms: C_2  and  C_4 
REMARK    3  A    between atoms: C_11  and  C_12 
REMARK    4  A    between atoms: C_17  and  C_18 
ROOT
ATOM      1  C   UNL d   1     -26.989  22.576  23.217  0.00  0.00     0.093 A 
ATOM      2  C   UNL d   1     -26.354  23.685  23.789  0.00  0.00     0.173 A 
ATOM      3  F   UNL d   1     -26.958  24.369  24.785  0.00  0.00    -0.202 F 
ATOM      4  C   UNL d   1     -25.109  24.076  23.338  0.00  0.00     0.170 A 
ATOM      5  F   UNL d   1     -24.494  25.142  23.895  0.00  0.00    -0.202 F 
ATOM      6  C   UNL d   1     -24.488  23.373  22.304  0.00  0.00     0.061 A 
ATOM      7  C   UNL d   1     -25.122  22.270  21.728  0.00  0.00     0.170 A 
ATOM      8  F   UNL d   1     -24.520  21.591  20.728  0.00  0.00    -0.202 F 
ATOM      9  C   UNL d   1     -26.365  21.874  22.181  0.00  0.00     0.173 A 
ATOM     10  F   UNL d   1     -26.978  20.806  21.625  0.00  0.00    -0.202 F 
ENDROOT
BRANCH   1  11
ATOM     11  C   UNL d   1     -28.317  22.154  23.703  0.00  0.00     0.145 A 
ATOM     12  N   UNL d   1     -28.567  21.587  24.922  0.00  0.00    -0.338 N 
ATOM     13  C   UNL d   1     -29.926  21.343  24.983  0.00  0.00     0.064 A 
ATOM     14  H   UNL d   1     -27.914  21.393  25.613  0.00  0.00     0.167 HD
ATOM     15  C   UNL d   1     -30.761  20.792  25.944  0.00  0.00     0.032 A 
ATOM     16  C   UNL d   1     -30.459  21.785  23.759  0.00  0.00     0.102 A 
ATOM     17  C   UNL d   1     -32.117  20.677  25.706  0.00  0.00     0.003 A 
ATOM     18  C   UNL d   1     -32.661  21.106  24.510  0.00  0.00     0.021 A 
ATOM     19  C   UNL d   1     -31.847  21.663  23.526  0.00  0.00     0.068 A 
ATOM     20  N   UNL d   1     -29.439  22.266  23.028  0.00  0.00    -0.227 NA
BRANCH  19  21
ATOM     21  C   UNL d   1     -32.428  22.120  22.253  0.00  0.00     0.178 C 
ATOM     22  O   UNL d   1     -33.593  22.468  22.207  0.00  0.00    -0.646 OA
BRANCH  21  23
ATOM     23  O   UNL d   1     -31.670  22.154  21.139  0.00  0.00    -0.773 OA
ATOM     24  H   UNL d   1     -32.050  22.590  20.364  0.00  0.00     0.167 HD
ENDBRANCH  21  23
ENDBRANCH  19  21
ENDBRANCH   1  11
BRANCH   6  25
ATOM     25  C   UNL d   1     -23.154  23.797  21.817  0.00  0.00     0.022 A 
ATOM     26  C   UNL d   1     -22.020  23.584  22.603  0.00  0.00     0.166 A 
ATOM     27  C   UNL d   1     -20.777  23.977  22.138  0.00  0.00     0.155 A 
ATOM     28  F   UNL d   1     -22.136  22.989  23.811  0.00  0.00    -0.202 F 
ATOM     29  C   UNL d   1     -20.660  24.592  20.904  0.00  0.00     0.045 A 
ATOM     30  F   UNL d   1     -19.676  23.767  22.895  0.00  0.00    -0.203 F 
ATOM     31  C   UNL d   1     -21.783  24.810  20.126  0.00  0.00     0.004 A 
ATOM     32  C   UNL d   1     -23.027  24.417  20.574  0.00  0.00     0.016 A 
ENDBRANCH   6  25
TORSDOF 4
ENDMDL
