MODEL 1
REMARK VINA RESULT:      -9.1      0.000      0.000
REMARK  6 active torsions:
REMARK  status: ('A' for Active; 'I' for Inactive)
REMARK       I    between atoms: N_2  and  C_3 
REMARK    1  A    between atoms: C_3  and  C_5 
REMARK    2  A    between atoms: C_9  and  C_10 
REMARK    3  A    between atoms: C_10  and  C_11 
REMARK    4  A    between atoms: C_11  and  C_12 
REMARK    5  A    between atoms: CA_13  and  C_14 
REMARK    6  A    between atoms: C_14  and  OXT_16 
ROOT
ATOM      1  C   UNL d   1     -24.118  23.700  22.405  0.00  0.00     0.044 A 
ATOM      2  CA  UNL d   1     -24.180  23.104  21.186  0.00  0.00     0.122 A 
ATOM      3  N   UNL d   1     -23.459  23.634  20.136  0.00  0.00    -0.302 N 
ATOM      4  H   UNL d   1     -23.507  23.210  19.265  0.00  0.00     0.171 HD
ATOM      5  C   UNL d   1     -22.689  24.722  20.300  0.00  0.00     0.327 A 
ATOM      6  O   UNL d   1     -22.066  25.154  19.350  0.00  0.00    -0.247 OA
ATOM      7  N   UNL d   1     -22.589  25.345  21.488  0.00  0.00    -0.275 N 
ATOM      8  H   UNL d   1     -22.023  26.129  21.574  0.00  0.00     0.173 HD
ATOM      9  C   UNL d   1     -23.269  24.888  22.560  0.00  0.00     0.258 A 
ATOM     10  O   UNL d   1     -23.180  25.451  23.635  0.00  0.00    -0.267 OA
ENDROOT
BRANCH   1  11
ATOM     11  C   UNL d   1     -24.897  23.152  23.572  0.00  0.00     0.051 C 
BRANCH  11  12
ATOM     12  C   UNL d   1     -26.093  24.060  23.860  0.00  0.00     0.043 C 
BRANCH  12  13
ATOM     13  C   UNL d   1     -27.319  23.217  24.102  0.00  0.00    -0.057 A 
ATOM     14  C   UNL d   1     -27.459  22.530  25.295  0.00  0.00     0.007 A 
ATOM     15  C   UNL d   1     -28.584  21.758  25.528  0.00  0.00     0.002 A 
ATOM     16  C   UNL d   1     -29.567  21.660  24.566  0.00  0.00     0.017 A 
ATOM     17  C   UNL d   1     -29.429  22.346  23.358  0.00  0.00     0.032 A 
ATOM     18  C   UNL d   1     -28.296  23.127  23.132  0.00  0.00     0.024 A 
BRANCH  17  19
ATOM     19  C   UNL d   1     -30.480  22.246  22.322  0.00  0.00     0.251 C 
ATOM     20  N   UNL d   1     -31.758  22.006  22.680  0.00  0.00    -0.361 N 
ATOM     21  C   UNL d   1     -32.799  21.907  21.654  0.00  0.00     0.149 C 
ATOM     22  H   UNL d   1     -31.987  21.900  23.617  0.00  0.00     0.162 HD
ATOM     23  O   UNL d   1     -30.192  22.379  21.150  0.00  0.00    -0.268 OA
ENDBRANCH  17  19
ENDBRANCH  12  13
ENDBRANCH  11  12
ENDBRANCH   1  11
BRANCH   2  24
ATOM     24  C   UNL d   1     -25.019  21.900  20.983  0.00  0.00     0.194 C 
ATOM     25  O   UNL d   1     -26.086  21.992  20.411  0.00  0.00    -0.645 OA
BRANCH  24  26
ATOM     26  OXT UNL d   1     -24.599  20.701  21.433  0.00  0.00    -0.772 OA
ATOM     27  HXT UNL d   1     -24.851  19.925  20.915  0.00  0.00     0.167 HD
ENDBRANCH  24  26
ENDBRANCH   2  24
TORSDOF 6
ENDMDL
