MODEL 1
REMARK VINA RESULT:     -10.5      0.000      0.000
REMARK  5 active torsions:
REMARK  status: ('A' for Active; 'I' for Inactive)
REMARK    1  A    between atoms: O_2  and  C_3 
REMARK    2  A    between atoms: C_8  and  C_9 
REMARK       I    between atoms: C_9  and  N_11 
REMARK    3  A    between atoms: N_11  and  C_12 
REMARK    4  A    between atoms: C_15  and  C_16 
REMARK    5  A    between atoms: C_16  and  O_19 
ROOT
ATOM      1  C   UNL d   1     -27.587  22.749  23.421  0.00  0.00     0.259 C 
ATOM      2  O   UNL d   1     -26.955  22.164  22.564  0.00  0.00    -0.267 OA
ATOM      3  N   UNL d   1     -27.043  23.806  24.058  0.00  0.00    -0.323 N 
ATOM      4  H   UNL d   1     -27.574  24.320  24.686  0.00  0.00     0.169 HD
ENDROOT
BRANCH   1   5
ATOM      5  C   UNL d   1     -28.951  22.303  23.766  0.00  0.00     0.066 A 
ATOM      6  C   UNL d   1     -30.007  22.507  22.867  0.00  0.00     0.084 A 
ATOM      7  C   UNL d   1     -31.284  22.079  23.199  0.00  0.00     0.045 A 
ATOM      8  C   UNL d   1     -31.508  21.461  24.414  0.00  0.00    -0.049 A 
ATOM      9  C   UNL d   1     -32.908  20.999  24.765  0.00  0.00     0.039 C 
ATOM     10  C   UNL d   1     -30.476  21.263  25.300  0.00  0.00    -0.051 A 
ATOM     11  C   UNL d   1     -32.938  19.469  24.727  0.00  0.00     0.005 C 
ATOM     12  C   UNL d   1     -32.490  18.885  26.052  0.00  0.00     0.001 C 
ATOM     13  C   UNL d   1     -31.024  19.104  26.369  0.00  0.00     0.005 C 
ATOM     14  C   UNL d   1     -30.735  20.584  26.629  0.00  0.00     0.039 C 
ATOM     15  C   UNL d   1     -29.198  21.680  24.992  0.00  0.00     0.027 A 
BRANCH   6  16
ATOM     16  O   UNL d   1     -29.780  23.115  21.676  0.00  0.00    -0.355 OA
ATOM     17  C   UNL d   1     -30.365  22.514  20.519  0.00  0.00     0.210 C 
ENDBRANCH   6  16
ENDBRANCH   1   5
BRANCH   3  18
ATOM     18  C   UNL d   1     -25.713  24.161  23.811  0.00  0.00     0.035 A 
ATOM     19  C   UNL d   1     -24.774  23.181  23.514  0.00  0.00     0.030 A 
ATOM     20  C   UNL d   1     -23.463  23.536  23.270  0.00  0.00     0.012 A 
ATOM     21  C   UNL d   1     -23.082  24.865  23.322  0.00  0.00    -0.025 A 
ATOM     22  C   UNL d   1     -24.014  25.842  23.618  0.00  0.00     0.012 A 
ATOM     23  C   UNL d   1     -25.329  25.495  23.857  0.00  0.00     0.030 A 
BRANCH  21  24
ATOM     24  C   UNL d   1     -21.649  25.247  23.056  0.00  0.00     0.077 C 
ATOM     25  C   UNL d   1     -21.290  26.484  23.882  0.00  0.00     0.051 C 
ATOM     26  C   UNL d   1     -20.731  24.088  23.448  0.00  0.00     0.051 C 
BRANCH  24  27
ATOM     27  O   UNL d   1     -21.483  25.536  21.667  0.00  0.00    -0.386 OA
ATOM     28  H   UNL d   1     -20.565  25.504  21.365  0.00  0.00     0.211 HD
ENDBRANCH  24  27
ENDBRANCH  21  24
ENDBRANCH   3  18
TORSDOF 5
ENDMDL
