MODEL 1
REMARK VINA RESULT:     -10.7      0.000      0.000
REMARK  5 active torsions:
REMARK  status: ('A' for Active; 'I' for Inactive)
REMARK    1  A    between atoms: C_2  and  N_3 
REMARK    2  A    between atoms: C_4  and  C_5 
REMARK    3  A    between atoms: C_5  and  O_6 
REMARK    4  A    between atoms: N_8  and  C_9 
REMARK    5  A    between atoms: N_15  and  C_16 
ROOT
ATOM      1  C   UNL d   1     -28.418  22.071  23.100  0.00  0.00     0.064 A 
ATOM      2  C   UNL d   1     -27.851  21.239  22.132  0.00  0.00     0.033 A 
ATOM      3  C   UNL d   1     -26.572  21.442  21.699  0.00  0.00     0.020 A 
ATOM      4  C   UNL d   1     -25.819  22.492  22.227  0.00  0.00     0.043 A 
ATOM      5  C   UNL d   1     -24.445  22.755  21.793  0.00  0.00     0.263 A 
ATOM      6  O   UNL d   1     -23.921  22.052  20.947  0.00  0.00    -0.267 OA
ATOM      7  N   UNL d   1     -23.766  23.782  22.341  0.00  0.00    -0.284 N 
ATOM      8  C   UNL d   1     -24.316  24.600  23.288  0.00  0.00     0.101 A 
ATOM      9  C   UNL d   1     -25.569  24.433  23.741  0.00  0.00     0.030 A 
ATOM     10  C   UNL d   1     -26.387  23.341  23.209  0.00  0.00    -0.017 A 
ATOM     11  C   UNL d   1     -27.693  23.120  23.640  0.00  0.00     0.044 A 
ENDROOT
BRANCH   1  12
ATOM     12  N   UNL d   1     -29.729  21.843  23.526  0.00  0.00    -0.181 N 
ATOM     13  N   UNL d   1     -30.120  21.318  24.764  0.00  0.00    -0.147 NA
ATOM     14  C   UNL d   1     -31.413  21.257  24.786  0.00  0.00     0.154 A 
ATOM     15  N   UNL d   1     -31.899  21.727  23.591  0.00  0.00    -0.283 N 
ATOM     16  C   UNL d   1     -30.853  22.092  22.822  0.00  0.00     0.351 A 
ATOM     17  O   UNL d   1     -30.913  22.557  21.698  0.00  0.00    -0.244 OA
BRANCH  14  18
ATOM     18  C   UNL d   1     -32.248  20.750  25.934  0.00  0.00     0.244 C 
BRANCH  18  19
ATOM     19  O   UNL d   1     -31.499  19.789  26.681  0.00  0.00    -0.393 OA
ATOM     20  H   UNL d   1     -32.029  19.055  27.020  0.00  0.00     0.209 HD
ENDBRANCH  18  19
ENDBRANCH  14  18
BRANCH  15  21
ATOM     21  C   UNL d   1     -33.313  21.822  23.218  0.00  0.00     0.131 C 
ATOM     22  C   UNL d   1     -33.750  20.523  22.538  0.00  0.00     0.027 C 
ENDBRANCH  15  21
ENDBRANCH   1  12
BRANCH   7  23
ATOM     23  C   UNL d   1     -22.451  24.023  21.922  0.00  0.00     0.102 A 
ATOM     24  C   UNL d   1     -21.382  23.589  22.696  0.00  0.00     0.064 A 
ATOM     25  C   UNL d   1     -20.086  23.833  22.281  0.00  0.00     0.026 A 
ATOM     26 CL   UNL d   1     -21.674  22.745  24.184  0.00  0.00    -0.082 Cl
ATOM     27  C   UNL d   1     -19.851  24.500  21.092  0.00  0.00     0.005 A 
ATOM     28  C   UNL d   1     -20.913  24.929  20.316  0.00  0.00     0.045 A 
ATOM     29  C   UNL d   1     -22.211  24.694  20.727  0.00  0.00     0.145 A 
ATOM     30  F   UNL d   1     -23.248  25.113  19.968  0.00  0.00    -0.204 F 
ENDBRANCH   7  23
TORSDOF 5
ENDMDL
