MODEL 1
REMARK VINA RESULT:     -11.0      0.000      0.000
REMARK  3 active torsions:
REMARK  status: ('A' for Active; 'I' for Inactive)
REMARK    1  A    between atoms: C_6  and  C_7 
REMARK       I    between atoms: C_7  and  N_9 
REMARK    2  A    between atoms: N_9  and  C_10 
REMARK    3  A    between atoms: N_18  and  C_19 
ROOT
ATOM      1  C   UNL d   1     -26.120  22.206  22.638  0.00  0.00     0.121 C 
ATOM      2  C   UNL d   1     -26.441  22.292  21.141  0.00  0.00     0.030 C 
ATOM      3  C   UNL d   1     -27.479  21.227  20.779  0.00  0.00     0.008 C 
ATOM      4  C   UNL d   1     -28.835  21.607  21.387  0.00  0.00     0.060 C 
ATOM      5  C   UNL d   1     -28.628  21.928  22.847  0.00  0.00     0.046 A 
ATOM      6  C   UNL d   1     -27.419  22.192  23.403  0.00  0.00     0.008 A 
ATOM      7  C   UNL d   1     -27.615  22.438  24.761  0.00  0.00     0.150 A 
ATOM      8  N   UNL d   1     -28.897  22.326  25.014  0.00  0.00    -0.179 NA
ATOM      9  N   UNL d   1     -29.555  22.006  23.818  0.00  0.00    -0.237 N 
ENDROOT
BRANCH   1  10
ATOM     10  N   UNL d   1     -25.322  23.367  23.040  0.00  0.00    -0.347 N 
ATOM     11  C   UNL d   1     -23.977  23.306  23.002  0.00  0.00     0.270 C 
ATOM     12  O   UNL d   1     -23.425  22.288  22.634  0.00  0.00    -0.266 OA
ATOM     13  H   UNL d   1     -25.763  24.181  23.332  0.00  0.00     0.163 HD
BRANCH  11  14
ATOM     14  C   UNL d   1     -23.169  24.480  23.408  0.00  0.00     0.124 A 
ATOM     15  N   UNL d   1     -23.699  25.696  23.345  0.00  0.00    -0.256 NA
ATOM     16  C   UNL d   1     -23.019  26.764  23.701  0.00  0.00     0.118 A 
ATOM     17  C   UNL d   1     -21.711  26.659  24.147  0.00  0.00     0.026 A 
ATOM     18  C   UNL d   1     -21.117  25.409  24.222  0.00  0.00    -0.058 A 
ATOM     19  C   UNL d   1     -19.698  25.258  24.704  0.00  0.00     0.048 C 
ATOM     20  C   UNL d   1     -21.860  24.300  23.846  0.00  0.00     0.044 A 
ENDBRANCH  11  14
ENDBRANCH   1  10
BRANCH   9  21
ATOM     21  C   UNL d   1     -30.935  21.804  23.663  0.00  0.00     0.064 A 
ATOM     22  C   UNL d   1     -31.633  21.039  24.587  0.00  0.00    -0.033 A 
ATOM     23  C   UNL d   1     -32.993  20.846  24.434  0.00  0.00     0.009 A 
ATOM     24  C   UNL d   1     -30.911  20.424  25.757  0.00  0.00     0.050 C 
ATOM     25  C   UNL d   1     -33.655  21.404  23.357  0.00  0.00     0.001 A 
ATOM     26  C   UNL d   1     -32.960  22.162  22.431  0.00  0.00     0.002 A 
ATOM     27  C   UNL d   1     -31.603  22.364  22.582  0.00  0.00     0.032 A 
ENDBRANCH   9  21
TORSDOF 3
ENDMDL
