MODEL 1
REMARK VINA RESULT:     -10.7      0.000      0.000
REMARK  8 active torsions:
REMARK  status: ('A' for Active; 'I' for Inactive)
REMARK    1  A    between atoms: C_2  and  C_3 
REMARK    2  A    between atoms: C_3  and  O_5 
REMARK    3  A    between atoms: O_5  and  C_6 
REMARK    4  A    between atoms: C_8  and  O_9 
REMARK    5  A    between atoms: O_9  and  C_10 
REMARK    6  A    between atoms: C_19  and  N_20 
REMARK       I    between atoms: N_20  and  C_21 
REMARK    7  A    between atoms: C_21  and  C_23 
REMARK    8  A    between atoms: C_24  and  O_25 
ROOT
ATOM      1  C   UNL d   1     -28.129  22.685  23.382  0.00  0.00     0.098 A 
ATOM      2  C   UNL d   1     -29.073  22.183  24.261  0.00  0.00     0.077 A 
ATOM      3  C   UNL d   1     -28.731  21.946  25.585  0.00  0.00     0.084 A 
ATOM      4  C   UNL d   1     -27.443  22.212  26.027  0.00  0.00    -0.026 A 
ATOM      5  C   UNL d   1     -27.073  21.953  27.466  0.00  0.00     0.051 C 
ATOM      6  C   UNL d   1     -26.498  22.712  25.152  0.00  0.00     0.042 A 
ATOM      7  C   UNL d   1     -26.836  22.950  23.828  0.00  0.00     0.069 A 
ENDROOT
BRANCH   7   8
ATOM      8  N   UNL d   1     -25.878  23.459  22.939  0.00  0.00    -0.320 N 
ATOM      9  C   UNL d   1     -25.094  22.614  22.239  0.00  0.00     0.263 C 
ATOM     10  O   UNL d   1     -25.264  21.412  22.325  0.00  0.00    -0.267 OA
ATOM     11  H   UNL d   1     -25.779  24.417  22.828  0.00  0.00     0.169 HD
BRANCH   9  12
ATOM     12  C   UNL d   1     -24.037  23.144  21.377  0.00  0.00     0.115 A 
ATOM     13  C   UNL d   1     -22.916  23.895  21.785  0.00  0.00     0.078 A 
ATOM     14  N   UNL d   1     -22.195  24.180  20.660  0.00  0.00    -0.242 N 
ATOM     15  C   UNL d   1     -22.477  24.344  23.037  0.00  0.00     0.033 A 
ATOM     16  N   UNL d   1     -22.860  23.614  19.565  0.00  0.00    -0.141 NA
ATOM     17  C   UNL d   1     -21.045  24.903  20.752  0.00  0.00     0.119 A 
ATOM     18  C   UNL d   1     -23.942  22.998  19.976  0.00  0.00     0.200 A 
ATOM     19  C   UNL d   1     -20.602  25.347  21.950  0.00  0.00     0.019 A 
ATOM     20  C   UNL d   1     -21.323  25.068  23.118  0.00  0.00     0.004 A 
BRANCH  18  21
ATOM     21  O   UNL d   1     -24.824  22.334  19.187  0.00  0.00    -0.343 OA
ATOM     22  H   UNL d   1     -25.502  21.849  19.677  0.00  0.00     0.219 HD
ENDBRANCH  18  21
ENDBRANCH   9  12
ENDBRANCH   7   8
BRANCH   1  23
ATOM     23  O   UNL d   1     -28.462  22.918  22.085  0.00  0.00    -0.344 OA
BRANCH  23  24
ATOM     24  C   UNL d   1     -29.104  21.854  21.379  0.00  0.00     0.124 C 
ATOM     25  C   UNL d   1     -28.099  21.185  20.439  0.00  0.00     0.040 C 
BRANCH  24  26
ATOM     26  C   UNL d   1     -30.271  22.414  20.562  0.00  0.00     0.027 C 
ATOM     27  C   UNL d   1     -31.588  22.100  21.273  0.00  0.00     0.007 C 
ENDBRANCH  24  26
ENDBRANCH  23  24
ENDBRANCH   1  23
BRANCH   3  28
ATOM     28  O   UNL d   1     -29.658  21.453  26.449  0.00  0.00    -0.310 OA
BRANCH  28  29
ATOM     29  C   UNL d   1     -30.808  20.949  25.930  0.00  0.00     0.076 A 
ATOM     30  C   UNL d   1     -31.160  19.629  26.173  0.00  0.00     0.037 A 
ATOM     31  C   UNL d   1     -32.330  19.118  25.644  0.00  0.00     0.003 A 
ATOM     32  C   UNL d   1     -33.149  19.922  24.872  0.00  0.00     0.000 A 
ATOM     33  C   UNL d   1     -32.801  21.237  24.629  0.00  0.00     0.003 A 
ATOM     34  C   UNL d   1     -31.635  21.754  25.160  0.00  0.00     0.037 A 
ENDBRANCH  28  29
ENDBRANCH   3  28
TORSDOF 8
ENDMDL
