MODEL 1
REMARK VINA RESULT:     -10.2      0.000      0.000
REMARK  6 active torsions:
REMARK  status: ('A' for Active; 'I' for Inactive)
REMARK    1  A    between atoms: C_2  and  O_3 
REMARK    2  A    between atoms: C_2  and  C_30 
REMARK    3  A    between atoms: O_3  and  C_4 
REMARK    4  A    between atoms: C_6  and  N_7 
REMARK    5  A    between atoms: C_20  and  C_21 
REMARK       I    between atoms: C_21  and  N_23 
REMARK    6  A    between atoms: N_23  and  C_24 
ROOT
ATOM      1  C   UNL d   1     -24.679  23.349  22.632  0.00  0.00     0.087 A 
ATOM      2  C   UNL d   1     -25.939  22.809  22.815  0.00  0.00     0.073 A 
ATOM      3  C   UNL d   1     -26.787  23.335  23.779  0.00  0.00     0.104 A 
ATOM      4  C   UNL d   1     -26.377  24.412  24.564  0.00  0.00     0.146 A 
ATOM      5  F   UNL d   1     -27.210  24.922  25.497  0.00  0.00    -0.204 F 
ATOM      6  C   UNL d   1     -25.123  24.953  24.393  0.00  0.00     0.064 A 
ATOM      7  C   UNL d   1     -24.261  24.430  23.423  0.00  0.00     0.068 A 
ENDROOT
BRANCH   3   8
ATOM      8  N   UNL d   1     -28.060  22.786  23.961  0.00  0.00    -0.178 N 
ATOM      9  C   UNL d   1     -28.461  22.024  25.001  0.00  0.00     0.351 A 
ATOM     10  N   UNL d   1     -29.757  21.731  24.807  0.00  0.00    -0.284 N 
ATOM     11  O   UNL d   1     -27.774  21.667  25.942  0.00  0.00    -0.244 OA
ATOM     12  C   UNL d   1     -30.153  22.286  23.607  0.00  0.00     0.131 A 
ATOM     13  C   UNL d   1     -30.645  20.972  25.696  0.00  0.00     0.135 C 
ATOM     14  N   UNL d   1     -29.155  22.924  23.096  0.00  0.00    -0.149 NA
ATOM     15  C   UNL d   1     -31.540  22.135  23.029  0.00  0.00     0.081 C 
ATOM     16  C   UNL d   1     -32.481  21.698  24.161  0.00  0.00     0.009 C 
ATOM     17  C   UNL d   1     -31.862  20.502  24.891  0.00  0.00     0.021 C 
ENDBRANCH   3   8
BRANCH   1  18
ATOM     18  O   UNL d   1     -23.848  22.836  21.689  0.00  0.00    -0.336 OA
BRANCH  18  19
ATOM     19  C   UNL d   1     -23.923  23.405  20.380  0.00  0.00     0.232 C 
ATOM     20  C   UNL d   1     -22.523  23.822  19.923  0.00  0.00     0.049 C 
BRANCH  19  21
ATOM     21  C   UNL d   1     -24.489  22.371  19.406  0.00  0.00     0.413 C 
ATOM     22  F   UNL d   1     -24.613  22.944  18.136  0.00  0.00    -0.168 F 
ATOM     23  F   UNL d   1     -23.627  21.271  19.339  0.00  0.00    -0.168 F 
ATOM     24  F   UNL d   1     -25.747  21.950  19.851  0.00  0.00    -0.168 F 
ENDBRANCH  19  21
ENDBRANCH  18  19
ENDBRANCH   1  18
BRANCH   7  25
ATOM     25  C   UNL d   1     -22.921  25.010  23.234  0.00  0.00     0.260 C 
ATOM     26  O   UNL d   1     -22.798  26.092  22.691  0.00  0.00    -0.267 OA
ATOM     27  N   UNL d   1     -21.831  24.344  23.663  0.00  0.00    -0.307 N 
ATOM     28  H   UNL d   1     -21.930  23.482  24.096  0.00  0.00     0.170 HD
BRANCH  27  29
ATOM     29  C   UNL d   1     -20.563  24.894  23.484  0.00  0.00     0.127 A 
ATOM     30  N   UNL d   1     -19.912  25.709  24.354  0.00  0.00    -0.259 N 
ATOM     31  N   UNL d   1     -18.671  26.031  23.791  0.00  0.00    -0.184 NA
ATOM     32  C   UNL d   1     -20.418  26.170  25.649  0.00  0.00     0.181 C 
ATOM     33  C   UNL d   1     -18.575  25.435  22.630  0.00  0.00     0.142 A 
ATOM     34  C   UNL d   1     -19.748  24.708  22.411  0.00  0.00     0.071 A 
ENDBRANCH  27  29
ENDBRANCH   7  25
TORSDOF 6
ENDMDL
