MODEL 1
REMARK VINA RESULT:     -11.9      0.000      0.000
REMARK  4 active torsions:
REMARK  status: ('A' for Active; 'I' for Inactive)
REMARK    1  A    between atoms: C_2  and  O_3 
REMARK    2  A    between atoms: C_2  and  C_4 
REMARK    3  A    between atoms: C_6  and  C_7 
REMARK    4  A    between atoms: C_10  and  C_11 
ROOT
ATOM      1  C   UNL d   1     -30.474  21.440  24.589  0.00  0.00     0.052 A 
ATOM      2  C   UNL d   1     -29.135  21.754  24.401  0.00  0.00     0.051 A 
ATOM      3  C   UNL d   1     -28.703  22.198  23.142  0.00  0.00     0.068 A 
ATOM      4  N   UNL d   1     -29.526  22.330  22.122  0.00  0.00    -0.247 NA
ATOM      5  C   UNL d   1     -30.826  22.051  22.213  0.00  0.00     0.068 A 
ATOM      6  C   UNL d   1     -31.681  22.202  21.106  0.00  0.00     0.032 A 
ATOM      7  C   UNL d   1     -33.004  21.909  21.229  0.00  0.00     0.002 A 
ATOM      8  C   UNL d   1     -33.531  21.459  22.439  0.00  0.00     0.001 A 
ATOM      9  C   UNL d   1     -32.733  21.302  23.533  0.00  0.00     0.015 A 
ATOM     10  C   UNL d   1     -31.369  21.594  23.441  0.00  0.00     0.010 A 
ENDROOT
BRANCH   3  11
ATOM     11  C   UNL d   1     -27.271  22.530  22.953  0.00  0.00    -0.007 A 
ATOM     12  C   UNL d   1     -26.671  23.510  23.744  0.00  0.00     0.014 A 
ATOM     13  C   UNL d   1     -25.340  23.818  23.568  0.00  0.00     0.013 A 
ATOM     14  C   UNL d   1     -24.592  23.149  22.599  0.00  0.00    -0.026 A 
ATOM     15  C   UNL d   1     -25.192  22.170  21.808  0.00  0.00     0.013 A 
ATOM     16  C   UNL d   1     -26.521  21.858  21.987  0.00  0.00     0.014 A 
BRANCH  14  17
ATOM     17  C   UNL d   1     -23.159  23.481  22.410  0.00  0.00    -0.026 A 
ATOM     18  C   UNL d   1     -22.251  23.274  23.446  0.00  0.00     0.012 A 
ATOM     19  C   UNL d   1     -20.918  23.585  23.265  0.00  0.00     0.001 A 
ATOM     20  C   UNL d   1     -20.484  24.100  22.057  0.00  0.00     0.000 A 
ATOM     21  C   UNL d   1     -21.381  24.307  21.025  0.00  0.00     0.001 A 
ATOM     22  C   UNL d   1     -22.715  23.995  21.193  0.00  0.00     0.012 A 
ENDBRANCH  14  17
ENDBRANCH   3  11
BRANCH   1  23
ATOM     23  C   UNL d   1     -30.976  20.967  25.896  0.00  0.00     0.177 C 
ATOM     24  O   UNL d   1     -31.740  21.659  26.541  0.00  0.00    -0.646 OA
BRANCH  23  25
ATOM     25  O   UNL d   1     -30.586  19.769  26.375  0.00  0.00    -0.773 OA
ATOM     26  H   UNL d   1     -31.096  19.403  27.111  0.00  0.00     0.167 HD
ENDBRANCH  23  25
ENDBRANCH   1  23
TORSDOF 4
ENDMDL
