MODEL 1
REMARK VINA RESULT:      -8.8      0.000      0.000
REMARK  5 active torsions:
REMARK  status: ('A' for Active; 'I' for Inactive)
REMARK    1  A    between atoms: O_2  and  C_3 
REMARK    2  A    between atoms: C_8  and  C_9 
REMARK    3  A    between atoms: C_9  and  O_11 
REMARK    4  A    between atoms: C_12  and  O_13 
REMARK    5  A    between atoms: C_14  and  C_15 
ROOT
ATOM      1  C   UNL d   1     -32.052  19.997  25.795  0.00  0.00     0.097 A 
ATOM      2  C   UNL d   1     -33.376  19.660  25.968  0.00  0.00     0.039 A 
ATOM      3  C   UNL d   1     -34.343  20.077  25.060  0.00  0.00     0.004 A 
ATOM      4  C   UNL d   1     -34.004  20.828  23.971  0.00  0.00     0.015 A 
ATOM      5  C   UNL d   1     -32.669  21.185  23.761  0.00  0.00     0.015 A 
ATOM      6  C   UNL d   1     -32.269  21.989  22.602  0.00  0.00     0.085 A 
ATOM      7  C   UNL d   1     -30.914  22.296  22.475  0.00  0.00     0.113 A 
ATOM      8  C   UNL d   1     -30.008  21.826  23.449  0.00  0.00     0.102 A 
ATOM      9  N   UNL d   1     -30.397  21.106  24.478  0.00  0.00    -0.242 NA
ATOM     10  C   UNL d   1     -31.671  20.768  24.675  0.00  0.00     0.102 A 
ENDROOT
BRANCH   8  11
ATOM     11  C   UNL d   1     -28.569  22.156  23.308  0.00  0.00    -0.004 A 
ATOM     12  C   UNL d   1     -27.958  23.022  24.212  0.00  0.00     0.015 A 
ATOM     13  C   UNL d   1     -26.618  23.325  24.077  0.00  0.00     0.024 A 
ATOM     14  C   UNL d   1     -25.883  22.770  23.044  0.00  0.00     0.034 A 
ATOM     15  C   UNL d   1     -26.484  21.908  22.143  0.00  0.00     0.024 A 
ATOM     16 CL   UNL d   1     -24.197  23.155  22.879  0.00  0.00    -0.084 Cl
ATOM     17  C   UNL d   1     -27.822  21.595  22.273  0.00  0.00     0.015 A 
ENDBRANCH   8  11
BRANCH   7  18
ATOM     18  O   UNL d   1     -30.474  23.036  21.429  0.00  0.00    -0.357 OA
ATOM     19  H   UNL d   1     -29.829  22.583  20.870  0.00  0.00     0.217 HD
ENDBRANCH   7  18
BRANCH   6  20
ATOM     20  C   UNL d   1     -33.257  22.456  21.615  0.00  0.00     0.180 C 
ATOM     21  O   UNL d   1     -33.158  22.121  20.451  0.00  0.00    -0.646 OA
BRANCH  20  22
ATOM     22  O   UNL d   1     -34.271  23.255  22.002  0.00  0.00    -0.773 OA
ATOM     23  H   UNL d   1     -34.052  23.983  22.599  0.00  0.00     0.167 HD
ENDBRANCH  20  22
ENDBRANCH   6  20
BRANCH   1  24
ATOM     24  O   UNL d   1     -31.119  19.586  26.692  0.00  0.00    -0.354 OA
ATOM     25  C   UNL d   1     -30.848  18.184  26.751  0.00  0.00     0.210 C 
ENDBRANCH   1  24
TORSDOF 5
ENDMDL
