MODEL 1
REMARK VINA RESULT:     -12.7      0.000      0.000
REMARK  4 active torsions:
REMARK  status: ('A' for Active; 'I' for Inactive)
REMARK    1  A    between atoms: C_3  and  C_4 
REMARK    2  A    between atoms: C_7  and  C_8 
REMARK    3  A    between atoms: C_25  and  C_26 
REMARK    4  A    between atoms: C_26  and  O_28 
ROOT
ATOM      1  C   UNL d   1     -27.885  21.866  25.575  0.00  0.00     0.052 C 
ATOM      2  C   UNL d   1     -28.816  21.956  24.393  0.00  0.00    -0.015 A 
ATOM      3  C   UNL d   1     -28.343  22.408  23.152  0.00  0.00     0.074 A 
ATOM      4  N   UNL d   1     -29.120  22.497  22.093  0.00  0.00    -0.247 NA
ATOM      5  C   UNL d   1     -30.413  22.171  22.127  0.00  0.00     0.069 A 
ATOM      6  C   UNL d   1     -31.219  22.276  20.978  0.00  0.00     0.035 A 
ATOM      7  C   UNL d   1     -32.535  21.936  21.042  0.00  0.00     0.044 A 
ATOM      8  C   UNL d   1     -33.104  21.482  22.233  0.00  0.00     0.117 A 
ATOM      9  F   UNL d   1     -34.414  21.153  22.264  0.00  0.00    -0.206 F 
ATOM     10  C   UNL d   1     -32.352  21.367  23.367  0.00  0.00     0.057 A 
ATOM     11  C   UNL d   1     -30.995  21.709  23.335  0.00  0.00     0.013 A 
ATOM     12  C   UNL d   1     -30.151  21.601  24.525  0.00  0.00     0.058 A 
ENDROOT
BRANCH   3  13
ATOM     13  C   UNL d   1     -26.917  22.790  23.026  0.00  0.00    -0.007 A 
ATOM     14  C   UNL d   1     -26.425  23.890  23.729  0.00  0.00     0.014 A 
ATOM     15  C   UNL d   1     -25.099  24.243  23.615  0.00  0.00     0.013 A 
ATOM     16  C   UNL d   1     -24.249  23.507  22.789  0.00  0.00    -0.023 A 
ATOM     17  C   UNL d   1     -24.741  22.406  22.087  0.00  0.00     0.013 A 
ATOM     18  C   UNL d   1     -26.065  22.050  22.204  0.00  0.00     0.014 A 
BRANCH  16  19
ATOM     19  C   UNL d   1     -22.823  23.890  22.662  0.00  0.00     0.013 A 
ATOM     20  C   UNL d   1     -22.363  24.503  21.495  0.00  0.00     0.127 A 
ATOM     21  C   UNL d   1     -21.030  24.852  21.382  0.00  0.00     0.043 A 
ATOM     22  F   UNL d   1     -23.217  24.749  20.478  0.00  0.00    -0.205 F 
ATOM     23  C   UNL d   1     -20.157  24.605  22.426  0.00  0.00     0.003 A 
ATOM     24  C   UNL d   1     -20.608  23.999  23.584  0.00  0.00     0.001 A 
ATOM     25  C   UNL d   1     -21.935  23.639  23.708  0.00  0.00     0.015 A 
ENDBRANCH  16  19
ENDBRANCH   3  13
BRANCH  12  26
ATOM     26  C   UNL d   1     -30.697  21.127  25.814  0.00  0.00     0.177 C 
ATOM     27  O   UNL d   1     -31.322  21.888  26.525  0.00  0.00    -0.646 OA
BRANCH  26  28
ATOM     28  O   UNL d   1     -30.501  19.851  26.199  0.00  0.00    -0.773 OA
ATOM     29  H   UNL d   1     -30.953  19.561  27.004  0.00  0.00     0.167 HD
ENDBRANCH  26  28
ENDBRANCH  12  26
TORSDOF 4
ENDMDL
