MODEL 1
REMARK VINA RESULT:      -9.9      0.000      0.000
REMARK  8 active torsions:
REMARK  status: ('A' for Active; 'I' for Inactive)
REMARK    1  A    between atoms: C_2  and  C_3 
REMARK    2  A    between atoms: C_3  and  C_4 
REMARK    3  A    between atoms: C_4  and  O_6 
REMARK    4  A    between atoms: O_6  and  C_7 
REMARK    5  A    between atoms: C_9  and  N_10 
REMARK    6  A    between atoms: C_23  and  C_24 
REMARK       I    between atoms: C_24  and  N_26 
REMARK    7  A    between atoms: N_26  and  C_27 
REMARK    8  A    between atoms: C_30  and  O_31 
ROOT
ATOM      1  C   UNL d   1     -26.039  23.321  23.450  0.00  0.00     0.087 A 
ATOM      2  C   UNL d   1     -27.414  23.157  23.465  0.00  0.00     0.073 A 
ATOM      3  C   UNL d   1     -28.019  22.286  22.570  0.00  0.00     0.104 A 
ATOM      4  C   UNL d   1     -27.246  21.572  21.653  0.00  0.00     0.146 A 
ATOM      5  F   UNL d   1     -27.841  20.722  20.788  0.00  0.00    -0.204 F 
ATOM      6  C   UNL d   1     -25.878  21.729  21.630  0.00  0.00     0.064 A 
ATOM      7  C   UNL d   1     -25.261  22.605  22.530  0.00  0.00     0.068 A 
ENDROOT
BRANCH   7   8
ATOM      8  C   UNL d   1     -23.798  22.775  22.509  0.00  0.00     0.259 C 
ATOM      9  O   UNL d   1     -23.072  21.805  22.618  0.00  0.00    -0.267 OA
ATOM     10  N   UNL d   1     -23.264  24.005  22.368  0.00  0.00    -0.321 N 
ATOM     11  H   UNL d   1     -23.840  24.784  22.344  0.00  0.00     0.169 HD
BRANCH  10  12
ATOM     12  C   UNL d   1     -21.876  24.157  22.257  0.00  0.00     0.058 A 
ATOM     13  C   UNL d   1     -21.287  24.367  21.012  0.00  0.00    -0.030 A 
ATOM     14  C   UNL d   1     -19.912  24.516  20.951  0.00  0.00     0.067 A 
ATOM     15  C   UNL d   1     -22.126  24.435  19.763  0.00  0.00     0.050 C 
ATOM     16  C   UNL d   1     -19.170  24.442  22.122  0.00  0.00     0.164 A 
ATOM     17  N   UNL d   1     -19.762  24.236  23.286  0.00  0.00    -0.235 NA
ATOM     18  C   UNL d   1     -21.069  24.094  23.384  0.00  0.00     0.149 A 
BRANCH  16  19
ATOM     19  O   UNL d   1     -17.821  24.580  22.070  0.00  0.00    -0.339 OA
ATOM     20  C   UNL d   1     -17.252  25.668  22.804  0.00  0.00     0.211 C 
ENDBRANCH  16  19
ENDBRANCH  10  12
ENDBRANCH   7   8
BRANCH   1  21
ATOM     21  O   UNL d   1     -25.447  24.172  24.326  0.00  0.00    -0.345 OA
BRANCH  21  22
ATOM     22  C   UNL d   1     -25.766  25.559  24.201  0.00  0.00     0.124 C 
ATOM     23  C   UNL d   1     -26.237  26.098  25.553  0.00  0.00     0.040 C 
BRANCH  22  24
ATOM     24  C   UNL d   1     -24.525  26.330  23.748  0.00  0.00     0.032 C 
BRANCH  24  25
ATOM     25  C   UNL d   1     -23.492  26.342  24.877  0.00  0.00    -0.002 C 
ATOM     26  C   UNL d   1     -22.328  27.257  24.493  0.00  0.00     0.005 C 
ENDBRANCH  24  25
ENDBRANCH  22  24
ENDBRANCH  21  22
ENDBRANCH   1  21
BRANCH   3  27
ATOM     27  N   UNL d   1     -29.406  22.122  22.587  0.00  0.00    -0.178 N 
ATOM     28  C   UNL d   1     -30.159  21.784  23.657  0.00  0.00     0.351 A 
ATOM     29  N   UNL d   1     -31.436  21.766  23.255  0.00  0.00    -0.280 N 
ATOM     30  O   UNL d   1     -29.752  21.542  24.779  0.00  0.00    -0.244 OA
ATOM     31  C   UNL d   1     -31.473  22.054  21.904  0.00  0.00     0.155 A 
ATOM     32  C   UNL d   1     -32.645  21.508  24.048  0.00  0.00     0.161 C 
ATOM     33  N   UNL d   1     -30.274  22.275  21.494  0.00  0.00    -0.147 NA
ATOM     34  C   UNL d   1     -32.758  22.076  21.108  0.00  0.00     0.248 C 
ATOM     35  O   UNL d   1     -33.845  22.146  22.043  0.00  0.00    -0.382 OA
ATOM     36  C   UNL d   1     -33.782  21.161  23.078  0.00  0.00     0.188 C 
ENDBRANCH   3  27
TORSDOF 8
ENDMDL
