MODEL 1
REMARK VINA RESULT:     -11.7      0.000      0.000
REMARK  6 active torsions:
REMARK  status: ('A' for Active; 'I' for Inactive)
REMARK    1  A    between atoms: C_5  and  C_6 
REMARK    2  A    between atoms: C_6  and  O_8 
REMARK    3  A    between atoms: C_10  and  C_11 
REMARK    4  A    between atoms: C_14  and  O_15 
REMARK    5  A    between atoms: O_15  and  C_16 
REMARK    6  A    between atoms: C_16  and  C_17 
ROOT
ATOM      1  C   UNL d   1     -34.401  21.965  21.574  0.00  0.00     0.091 C 
ATOM      2  C   UNL d   1     -32.990  21.998  22.100  0.00  0.00     0.101 A 
ATOM      3  N   UNL d   1     -32.647  21.772  23.337  0.00  0.00    -0.233 NA
ATOM      4  C   UNL d   1     -31.310  21.881  23.468  0.00  0.00     0.102 A 
ATOM      5  C   UNL d   1     -30.428  21.742  24.563  0.00  0.00     0.069 A 
ATOM      6  C   UNL d   1     -29.062  21.916  24.369  0.00  0.00     0.033 A 
ATOM      7  C   UNL d   1     -28.567  22.236  23.107  0.00  0.00    -0.023 A 
ATOM      8  C   UNL d   1     -29.432  22.376  22.026  0.00  0.00     0.044 A 
ATOM      9  C   UNL d   1     -30.796  22.200  22.200  0.00  0.00     0.064 A 
ATOM     10  N   UNL d   1     -31.886  22.266  21.353  0.00  0.00    -0.343 N 
ATOM     11  H   UNL d   1     -31.868  22.467  20.405  0.00  0.00     0.167 HD
ENDROOT
BRANCH   7  12
ATOM     12  C   UNL d   1     -27.108  22.424  22.913  0.00  0.00    -0.026 A 
ATOM     13  C   UNL d   1     -26.396  23.275  23.757  0.00  0.00     0.015 A 
ATOM     14  C   UNL d   1     -25.040  23.448  23.574  0.00  0.00     0.037 A 
ATOM     15  C   UNL d   1     -24.385  22.776  22.551  0.00  0.00     0.069 A 
ATOM     16  C   UNL d   1     -25.091  21.928  21.710  0.00  0.00     0.037 A 
ATOM     17  C   UNL d   1     -26.447  21.751  21.887  0.00  0.00     0.015 A 
BRANCH  15  18
ATOM     18  O   UNL d   1     -23.048  22.947  22.375  0.00  0.00    -0.347 OA
BRANCH  18  19
ATOM     19  C   UNL d   1     -22.624  24.180  21.790  0.00  0.00     0.214 C 
BRANCH  19  20
ATOM     20  C   UNL d   1     -22.142  25.111  22.873  0.00  0.00    -0.034 A 
ATOM     21  C   UNL d   1     -22.887  26.227  23.206  0.00  0.00     0.009 A 
ATOM     22  C   UNL d   1     -22.445  27.080  24.200  0.00  0.00     0.001 A 
ATOM     23  C   UNL d   1     -21.260  26.818  24.860  0.00  0.00     0.000 A 
ATOM     24  C   UNL d   1     -20.516  25.702  24.527  0.00  0.00     0.001 A 
ATOM     25  C   UNL d   1     -20.960  24.845  23.536  0.00  0.00     0.009 A 
ENDBRANCH  19  20
ENDBRANCH  18  19
ENDBRANCH  15  18
ENDBRANCH   7  12
BRANCH   5  26
ATOM     26  C   UNL d   1     -30.953  21.408  25.898  0.00  0.00     0.178 C 
ATOM     27  O   UNL d   1     -30.278  21.616  26.886  0.00  0.00    -0.646 OA
BRANCH  26  28
ATOM     28  O   UNL d   1     -32.182  20.871  26.024  0.00  0.00    -0.773 OA
ATOM     29  H   UNL d   1     -32.633  20.998  26.870  0.00  0.00     0.167 HD
ENDBRANCH  26  28
ENDBRANCH   5  26
TORSDOF 6
ENDMDL
