MODEL 1
REMARK VINA RESULT:     -10.2      0.000      0.000
REMARK  6 active torsions:
REMARK  status: ('A' for Active; 'I' for Inactive)
REMARK    1  A    between atoms: C_2  and  C_3 
REMARK    2  A    between atoms: N_5  and  C_6 
REMARK    3  A    between atoms: C_18  and  N_19 
REMARK    4  A    between atoms: C_21  and  C_22 
REMARK    5  A    between atoms: C_22  and  O_23 
REMARK    6  A    between atoms: N_24  and  C_25 
ROOT
ATOM      1  C   UNL d   1     -25.906  23.975  23.860  0.00  0.00     0.066 A 
ATOM      2  N   UNL d   1     -24.664  24.155  23.519  0.00  0.00    -0.168 NA
ATOM      3  N   UNL d   1     -24.093  23.542  22.404  0.00  0.00    -0.197 N 
ATOM      4  C   UNL d   1     -24.802  22.718  21.604  0.00  0.00     0.279 A 
ATOM      5  O   UNL d   1     -24.281  22.194  20.637  0.00  0.00    -0.265 OA
ATOM      6  C   UNL d   1     -26.211  22.465  21.923  0.00  0.00     0.046 A 
ATOM      7  C   UNL d   1     -27.005  21.625  21.141  0.00  0.00     0.020 A 
ATOM      8  C   UNL d   1     -28.310  21.415  21.482  0.00  0.00     0.033 A 
ATOM      9  C   UNL d   1     -28.866  22.041  22.599  0.00  0.00     0.064 A 
ATOM     10  C   UNL d   1     -28.100  22.880  23.391  0.00  0.00     0.046 A 
ATOM     11  C   UNL d   1     -26.764  23.100  23.061  0.00  0.00     0.008 A 
ENDROOT
BRANCH   9  12
ATOM     12  N   UNL d   1     -30.205  21.814  22.924  0.00  0.00    -0.181 N 
ATOM     13  C   UNL d   1     -31.266  21.987  22.109  0.00  0.00     0.351 A 
ATOM     14  N   UNL d   1     -32.372  21.662  22.811  0.00  0.00    -0.283 N 
ATOM     15  O   UNL d   1     -31.234  22.368  20.953  0.00  0.00    -0.244 OA
ATOM     16  C   UNL d   1     -31.985  21.276  24.070  0.00  0.00     0.154 A 
ATOM     17  N   UNL d   1     -30.696  21.361  24.157  0.00  0.00    -0.147 NA
BRANCH  14  18
ATOM     18  C   UNL d   1     -33.748  21.707  22.312  0.00  0.00     0.131 C 
ATOM     19  C   UNL d   1     -34.102  20.363  21.671  0.00  0.00     0.027 C 
ENDBRANCH  14  18
BRANCH  16  20
ATOM     20  C   UNL d   1     -32.910  20.828  25.172  0.00  0.00     0.244 C 
BRANCH  20  21
ATOM     21  O   UNL d   1     -32.149  20.554  26.352  0.00  0.00    -0.393 OA
ATOM     22  H   UNL d   1     -31.599  19.763  26.290  0.00  0.00     0.209 HD
ENDBRANCH  20  21
ENDBRANCH  16  20
ENDBRANCH   9  12
BRANCH   1  23
ATOM     23  C   UNL d   1     -26.461  24.669  25.078  0.00  0.00     0.057 C 
ATOM     24  C   UNL d   1     -26.087  26.152  25.035  0.00  0.00     0.011 C 
ENDBRANCH   1  23
BRANCH   3  25
ATOM     25  C   UNL d   1     -22.749  23.788  22.105  0.00  0.00     0.065 A 
ATOM     26  C   UNL d   1     -22.411  24.528  20.980  0.00  0.00     0.074 A 
ATOM     27  C   UNL d   1     -21.080  24.771  20.688  0.00  0.00     0.118 A 
ATOM     28  C   UNL d   1     -20.087  24.274  21.517  0.00  0.00     0.042 A 
ATOM     29  F   UNL d   1     -20.749  25.491  19.594  0.00  0.00    -0.206 F 
ATOM     30  C   UNL d   1     -20.423  23.537  22.638  0.00  0.00     0.005 A 
ATOM     31  C   UNL d   1     -21.749  23.297  22.937  0.00  0.00     0.032 A 
ENDBRANCH   3  25
TORSDOF 6
ENDMDL
