MODEL 1
REMARK VINA RESULT:      -9.2      0.000      0.000
REMARK  5 active torsions:
REMARK  status: ('A' for Active; 'I' for Inactive)
REMARK    1  A    between atoms: O_2  and  C_3 
REMARK    2  A    between atoms: C_6  and  C_7 
REMARK    3  A    between atoms: C_7  and  S_8 
REMARK    4  A    between atoms: S_8  and  C_9 
REMARK    5  A    between atoms: C_16  and  O_17 
ROOT
ATOM      1  C   UNL d   1     -28.771  22.397  23.495  0.00  0.00     0.227 A 
ATOM      2  N   UNL d   1     -29.548  22.567  22.426  0.00  0.00    -0.033 NA
ATOM      3  C   UNL d   1     -30.802  22.247  22.728  0.00  0.00     0.754 A 
ATOM      4  N   UNL d   1     -31.930  22.245  22.009  0.00  0.00    -0.066 NA
ATOM      5  C   UNL d   1     -33.076  21.883  22.547  0.00  0.00     0.054 A 
ATOM      6  C   UNL d   1     -34.332  21.892  21.711  0.00  0.00     0.071 C 
ATOM      7  C   UNL d   1     -33.136  21.492  23.883  0.00  0.00     0.085 A 
ATOM      8  C   UNL d   1     -31.989  21.489  24.629  0.00  0.00     0.184 A 
ATOM      9  N   UNL d   1     -30.820  21.869  24.041  0.00  0.00    -0.035 N 
ATOM     10  N   UNL d   1     -29.503  21.976  24.506  0.00  0.00    -0.122 NA
ENDROOT
BRANCH   1  11
ATOM     11  S   UNL d   1     -27.036  22.698  23.549  0.00  0.00    -0.083 SA
BRANCH  11  12
ATOM     12  C   UNL d   1     -26.384  21.559  22.297  0.00  0.00     0.121 C 
BRANCH  12  13
ATOM     13  C   UNL d   1     -25.276  22.235  21.532  0.00  0.00    -0.048 A 
ATOM     14  C   UNL d   1     -24.358  23.024  22.200  0.00  0.00     0.011 A 
ATOM     15  C   UNL d   1     -23.337  23.640  21.503  0.00  0.00     0.037 A 
ATOM     16  C   UNL d   1     -23.236  23.471  20.129  0.00  0.00     0.068 A 
ATOM     17  C   UNL d   1     -24.162  22.684  19.461  0.00  0.00     0.037 A 
ATOM     18  C   UNL d   1     -25.181  22.071  20.163  0.00  0.00     0.011 A 
BRANCH  16  19
ATOM     19  O   UNL d   1     -22.232  24.075  19.442  0.00  0.00    -0.356 OA
ATOM     20  C   UNL d   1     -21.370  24.943  20.181  0.00  0.00     0.210 C 
ENDBRANCH  16  19
ENDBRANCH  12  13
ENDBRANCH  11  12
ENDBRANCH   1  11
BRANCH   8  21
ATOM     21  O   UNL d   1     -32.015  21.114  25.928  0.00  0.00    -0.344 OA
ATOM     22  H   UNL d   1     -32.890  21.170  26.336  0.00  0.00     0.219 HD
ENDBRANCH   8  21
TORSDOF 5
ENDMDL
