MODEL 1
REMARK VINA RESULT:     -12.2      0.000      0.000
REMARK  7 active torsions:
REMARK  status: ('A' for Active; 'I' for Inactive)
REMARK    1  A    between atoms: C_4  and  C_5 
REMARK    2  A    between atoms: C_5  and  O_7 
REMARK    3  A    between atoms: C_10  and  C_11 
REMARK    4  A    between atoms: C_14  and  C_15 
REMARK    5  A    between atoms: C_18  and  O_19 
REMARK    6  A    between atoms: O_19  and  C_20 
REMARK    7  A    between atoms: C_25  and  C_26 
ROOT
ATOM      1  C   UNL d   1     -27.078  22.810  23.009  0.00  0.00     0.010 A 
ATOM      2  C   UNL d   1     -26.568  23.823  23.825  0.00  0.00     0.016 A 
ATOM      3  C   UNL d   1     -25.232  24.146  23.765  0.00  0.00     0.013 A 
ATOM      4  C   UNL d   1     -24.386  23.462  22.891  0.00  0.00    -0.026 A 
ATOM      5  C   UNL d   1     -24.896  22.455  22.072  0.00  0.00     0.013 A 
ATOM      6  C   UNL d   1     -26.232  22.127  22.135  0.00  0.00     0.016 A 
ENDROOT
BRANCH   1   7
ATOM      7  C   UNL d   1     -28.514  22.463  23.072  0.00  0.00     0.139 A 
ATOM      8  N   UNL d   1     -29.124  21.957  24.119  0.00  0.00    -0.227 NA
ATOM      9  C   UNL d   1     -30.424  21.761  23.837  0.00  0.00     0.102 A 
ATOM     10  C   UNL d   1     -31.512  21.254  24.581  0.00  0.00     0.069 A 
ATOM     11  C   UNL d   1     -30.633  22.180  22.511  0.00  0.00     0.064 A 
ATOM     12  C   UNL d   1     -32.771  21.176  23.988  0.00  0.00     0.027 A 
ATOM     13  C   UNL d   1     -32.954  21.593  22.684  0.00  0.00    -0.059 A 
ATOM     14  C   UNL d   1     -34.322  21.503  22.058  0.00  0.00     0.048 C 
ATOM     15  C   UNL d   1     -31.896  22.092  21.947  0.00  0.00     0.038 A 
ATOM     16  N   UNL d   1     -29.408  22.626  22.051  0.00  0.00    -0.338 N 
ATOM     17  H   UNL d   1     -29.219  22.985  21.170  0.00  0.00     0.167 HD
BRANCH  10  18
ATOM     18  C   UNL d   1     -31.318  20.808  25.971  0.00  0.00     0.178 C 
ATOM     19  O   UNL d   1     -31.875  19.803  26.370  0.00  0.00    -0.646 OA
BRANCH  18  20
ATOM     20  O   UNL d   1     -30.523  21.513  26.800  0.00  0.00    -0.773 OA
ATOM     21  H   UNL d   1     -29.741  21.928  26.410  0.00  0.00     0.167 HD
ENDBRANCH  18  20
ENDBRANCH  10  18
ENDBRANCH   1   7
BRANCH   4  22
ATOM     22  C   UNL d   1     -22.948  23.812  22.827  0.00  0.00    -0.026 A 
ATOM     23  C   UNL d   1     -22.048  23.241  23.726  0.00  0.00     0.015 A 
ATOM     24  C   UNL d   1     -20.711  23.570  23.664  0.00  0.00     0.038 A 
ATOM     25  C   UNL d   1     -20.259  24.468  22.706  0.00  0.00     0.076 A 
ATOM     26  C   UNL d   1     -21.152  25.038  21.809  0.00  0.00     0.038 A 
ATOM     27  C   UNL d   1     -22.491  24.714  21.865  0.00  0.00     0.015 A 
BRANCH  25  28
ATOM     28  O   UNL d   1     -18.940  24.789  22.647  0.00  0.00    -0.310 OA
BRANCH  28  29
ATOM     29  C   UNL d   1     -18.475  25.731  23.505  0.00  0.00     0.089 A 
ATOM     30  C   UNL d   1     -17.147  26.176  23.411  0.00  0.00     0.035 A 
ATOM     31  C   UNL d   1     -16.679  27.149  24.303  0.00  0.00     0.017 A 
ATOM     32  C   UNL d   1     -17.525  27.662  25.262  0.00  0.00     0.001 A 
ATOM     33  C   UNL d   1     -18.835  27.219  25.350  0.00  0.00     0.003 A 
ATOM     34  C   UNL d   1     -19.311  26.263  24.475  0.00  0.00     0.038 A 
BRANCH  30  35
ATOM     35  C   UNL d   1     -16.253  25.625  22.385  0.00  0.00     0.272 C 
ATOM     36  O   UNL d   1     -15.544  24.675  22.645  0.00  0.00    -0.301 OA
ENDBRANCH  30  35
ENDBRANCH  28  29
ENDBRANCH  25  28
ENDBRANCH   4  22
TORSDOF 7
ENDMDL
