MODEL 1
REMARK VINA RESULT:      -7.7      0.000      0.000
REMARK  8 active torsions:
REMARK  status: ('A' for Active; 'I' for Inactive)
REMARK    1  A    between atoms: C_2  and  C_3 
REMARK    2  A    between atoms: N_5  and  C_6 
REMARK    3  A    between atoms: C_8  and  O_9 
REMARK    4  A    between atoms: O_9  and  C_10 
REMARK    5  A    between atoms: C_10  and  C_12 
REMARK    6  A    between atoms: C_18  and  C_19 
REMARK       I    between atoms: C_19  and  N_21 
REMARK    7  A    between atoms: N_21  and  C_22 
REMARK    8  A    between atoms: C_22  and  C_23 
ROOT
ATOM      1  C   UNL d   1     -22.546  24.899  23.376  0.00  0.00     0.104 A 
ATOM      2  C   UNL d   1     -21.297  24.555  23.874  0.00  0.00     0.073 A 
ATOM      3  C   UNL d   1     -20.678  25.363  24.812  0.00  0.00     0.087 A 
ATOM      4  C   UNL d   1     -21.317  26.529  25.258  0.00  0.00     0.068 A 
ATOM      5  C   UNL d   1     -22.577  26.868  24.751  0.00  0.00     0.064 A 
ATOM      6  C   UNL d   1     -23.184  26.057  23.819  0.00  0.00     0.146 A 
ATOM      7  F   UNL d   1     -24.400  26.385  23.330  0.00  0.00    -0.204 F 
ENDROOT
BRANCH   4   8
ATOM      8  C   UNL d   1     -20.668  27.391  26.261  0.00  0.00     0.255 C 
ATOM      9  O   UNL d   1     -20.180  28.453  25.924  0.00  0.00    -0.268 OA
ATOM     10  N   UNL d   1     -20.615  27.003  27.550  0.00  0.00    -0.343 N 
ATOM     11  H   UNL d   1     -20.941  26.126  27.806  0.00  0.00     0.164 HD
BRANCH  10  12
ATOM     12  C   UNL d   1     -20.067  27.907  28.564  0.00  0.00     0.060 A 
ATOM     13  C   UNL d   1     -20.748  29.265  28.743  0.00  0.00     0.039 A 
ATOM     14  C   UNL d   1     -20.921  28.176  29.806  0.00  0.00     0.039 A 
BRANCH  12  15
ATOM     15  C   UNL d   1     -18.573  27.848  28.747  0.00  0.00    -0.030 A 
ATOM     16  C   UNL d   1     -17.940  26.625  28.871  0.00  0.00     0.013 A 
ATOM     17  C   UNL d   1     -16.569  26.571  29.039  0.00  0.00     0.043 A 
ATOM     18  C   UNL d   1     -15.830  27.741  29.083  0.00  0.00     0.116 A 
ATOM     19  C   UNL d   1     -16.465  28.965  28.959  0.00  0.00     0.043 A 
ATOM     20  F   UNL d   1     -14.490  27.688  29.248  0.00  0.00    -0.206 F 
ATOM     21  C   UNL d   1     -17.836  29.016  28.786  0.00  0.00     0.013 A 
ENDBRANCH  12  15
ENDBRANCH  10  12
ENDBRANCH   4   8
BRANCH   3  22
ATOM     22  O   UNL d   1     -19.456  25.028  25.297  0.00  0.00    -0.345 OA
BRANCH  22  23
ATOM     23  C   UNL d   1     -18.331  25.281  24.454  0.00  0.00     0.129 C 
ATOM     24  C   UNL d   1     -18.779  26.086  23.234  0.00  0.00     0.040 C 
BRANCH  23  25
ATOM     25  C   UNL d   1     -17.280  26.077  25.232  0.00  0.00     0.015 C 
ATOM     26  C   UNL d   1     -15.926  25.371  25.129  0.00  0.00     0.007 C 
ATOM     27  C   UNL d   1     -14.876  26.167  25.906  0.00  0.00     0.000 C 
ATOM     28  C   UNL d   1     -14.763  27.574  25.317  0.00  0.00     0.000 C 
ATOM     29  C   UNL d   1     -16.117  28.280  25.420  0.00  0.00     0.000 C 
ATOM     30  C   UNL d   1     -17.167  27.485  24.643  0.00  0.00     0.007 C 
ENDBRANCH  23  25
ENDBRANCH  22  23
ENDBRANCH   3  22
BRANCH   1  31
ATOM     31  N   UNL d   1     -23.167  24.080  22.430  0.00  0.00    -0.178 N 
ATOM     32  N   UNL d   1     -23.914  22.923  22.693  0.00  0.00    -0.149 NA
ATOM     33  C   UNL d   1     -24.325  22.443  21.563  0.00  0.00     0.130 A 
ATOM     34  N   UNL d   1     -23.874  23.251  20.548  0.00  0.00    -0.289 N 
ATOM     35  C   UNL d   1     -23.166  24.262  21.092  0.00  0.00     0.351 A 
ATOM     36  C   UNL d   1     -24.125  23.053  19.119  0.00  0.00     0.162 C 
ATOM     37  O   UNL d   1     -22.622  25.168  20.488  0.00  0.00    -0.244 OA
BRANCH  33  38
ATOM     38  C   UNL d   1     -25.163  21.203  21.390  0.00  0.00     0.076 C 
ATOM     39  C   UNL d   1     -26.645  21.573  21.482  0.00  0.00     0.013 C 
ENDBRANCH  33  38
ENDBRANCH   1  31
TORSDOF 8
ENDMDL
