MODEL 1
REMARK VINA RESULT:     -10.0      0.000      0.000
REMARK  9 active torsions:
REMARK  status: ('A' for Active; 'I' for Inactive)
REMARK    1  A    between atoms: C_2  and  N_3 
REMARK    2  A    between atoms: C_4  and  O_5 
REMARK    3  A    between atoms: O_5  and  C_6 
REMARK    4  A    between atoms: N_10  and  C_11 
REMARK    5  A    between atoms: C_13  and  O_14 
REMARK    6  A    between atoms: O_14  and  C_15 
REMARK    7  A    between atoms: C_15  and  C_17 
REMARK    8  A    between atoms: C_21  and  C_22 
REMARK       I    between atoms: C_22  and  N_24 
REMARK    9  A    between atoms: N_24  and  C_25 
ROOT
ATOM      1  C   UNL d   1     -26.757  23.388  23.685  0.00  0.00     0.105 A 
ATOM      2  C   UNL d   1     -25.893  22.883  22.722  0.00  0.00     0.073 A 
ATOM      3  C   UNL d   1     -24.618  23.405  22.592  0.00  0.00     0.087 A 
ATOM      4  C   UNL d   1     -24.198  24.439  23.443  0.00  0.00     0.068 A 
ATOM      5  C   UNL d   1     -25.072  24.939  24.413  0.00  0.00     0.064 A 
ATOM      6  C   UNL d   1     -26.342  24.416  24.531  0.00  0.00     0.146 A 
ATOM      7  F   UNL d   1     -27.185  24.900  25.469  0.00  0.00    -0.204 F 
ENDROOT
BRANCH   1   8
ATOM      8  N   UNL d   1     -28.044  22.863  23.810  0.00  0.00    -0.175 N 
ATOM      9  N   UNL d   1     -29.147  23.167  23.002  0.00  0.00    -0.118 NA
ATOM     10  C   UNL d   1     -30.163  22.480  23.431  0.00  0.00     0.270 A 
ATOM     11  N   UNL d   1     -29.762  21.725  24.507  0.00  0.00    -0.261 N 
ATOM     12  C   UNL d   1     -28.456  21.972  24.736  0.00  0.00     0.353 A 
ATOM     13  O   UNL d   1     -27.774  21.479  25.616  0.00  0.00    -0.244 OA
BRANCH  10  14
ATOM     14  O   UNL d   1     -31.412  22.503  22.904  0.00  0.00    -0.315 OA
BRANCH  14  15
ATOM     15  C   UNL d   1     -31.634  21.728  21.725  0.00  0.00     0.124 C 
ATOM     16  C   UNL d   1     -33.118  21.773  21.356  0.00  0.00     0.040 C 
ATOM     17  C   UNL d   1     -30.804  22.301  20.574  0.00  0.00     0.040 C 
ENDBRANCH  14  15
ENDBRANCH  10  14
BRANCH  11  18
ATOM     18  C   UNL d   1     -30.609  20.811  25.278  0.00  0.00     0.133 C 
ATOM     19  C   UNL d   1     -31.857  21.553  25.757  0.00  0.00     0.027 C 
ENDBRANCH  11  18
ENDBRANCH   1   8
BRANCH   3  20
ATOM     20  O   UNL d   1     -23.776  22.915  21.648  0.00  0.00    -0.336 OA
BRANCH  20  21
ATOM     21  C   UNL d   1     -23.898  23.450  20.328  0.00  0.00     0.232 C 
ATOM     22  C   UNL d   1     -22.522  23.899  19.831  0.00  0.00     0.049 C 
BRANCH  21  23
ATOM     23  C   UNL d   1     -24.454  22.377  19.392  0.00  0.00     0.413 C 
ATOM     24  F   UNL d   1     -24.556  22.895  18.097  0.00  0.00    -0.168 F 
ATOM     25  F   UNL d   1     -23.594  21.272  19.385  0.00  0.00    -0.168 F 
ATOM     26  F   UNL d   1     -25.720  21.980  19.836  0.00  0.00    -0.168 F 
ENDBRANCH  21  23
ENDBRANCH  20  21
ENDBRANCH   3  20
BRANCH   4  27
ATOM     27  C   UNL d   1     -22.841  24.996  23.313  0.00  0.00     0.259 C 
ATOM     28  O   UNL d   1     -22.666  26.038  22.710  0.00  0.00    -0.267 OA
ATOM     29  N   UNL d   1     -21.793  24.350  23.862  0.00  0.00    -0.318 N 
ATOM     30  H   UNL d   1     -21.919  23.479  24.269  0.00  0.00     0.169 HD
BRANCH  29  31
ATOM     31  C   UNL d   1     -20.521  24.938  23.845  0.00  0.00     0.113 A 
ATOM     32  C   UNL d   1     -20.128  25.777  24.881  0.00  0.00     0.146 A 
ATOM     33  C   UNL d   1     -18.872  26.355  24.862  0.00  0.00     0.045 A 
ATOM     34  F   UNL d   1     -20.971  26.027  25.907  0.00  0.00    -0.204 F 
ATOM     35  C   UNL d   1     -18.007  26.101  23.813  0.00  0.00     0.006 A 
ATOM     36  C   UNL d   1     -18.395  25.267  22.780  0.00  0.00     0.045 A 
ATOM     37  C   UNL d   1     -19.648  24.681  22.795  0.00  0.00     0.146 A 
ATOM     38  F   UNL d   1     -20.023  23.862  21.789  0.00  0.00    -0.204 F 
ENDBRANCH  29  31
ENDBRANCH   4  27
TORSDOF 9
ENDMDL
