MODEL 1
REMARK VINA RESULT:     -10.6      0.000      0.000
REMARK  5 active torsions:
REMARK  status: ('A' for Active; 'I' for Inactive)
REMARK    1  A    between atoms: C_5  and  N_6 
REMARK    2  A    between atoms: N_6  and  C_7 
REMARK    3  A    between atoms: C_10  and  C_11 
REMARK    4  A    between atoms: C_20  and  C_21 
REMARK    5  A    between atoms: C_21  and  O_23 
ROOT
ATOM      1  C   UNL d   1     -27.202  22.481  23.646  0.00  0.00     0.050 A 
ATOM      2  C   UNL d   1     -26.697  21.700  22.608  0.00  0.00     0.033 A 
ATOM      3  C   UNL d   1     -25.489  22.059  22.040  0.00  0.00     0.035 A 
ATOM      4  C   UNL d   1     -24.815  23.178  22.528  0.00  0.00     0.070 A 
ATOM      5  N   UNL d   1     -25.327  23.898  23.518  0.00  0.00    -0.258 NA
ATOM      6  C   UNL d   1     -26.477  23.587  24.077  0.00  0.00     0.146 A 
ENDROOT
BRANCH   1   7
ATOM      7  N   UNL d   1     -28.421  22.159  24.244  0.00  0.00    -0.354 N 
ATOM      8  H   UNL d   1     -28.461  21.972  25.195  0.00  0.00     0.166 HD
BRANCH   7   9
ATOM      9  C   UNL d   1     -29.579  22.107  23.478  0.00  0.00     0.049 A 
ATOM     10  C   UNL d   1     -29.545  22.465  22.136  0.00  0.00     0.031 A 
ATOM     11  C   UNL d   1     -30.695  22.407  21.376  0.00  0.00     0.009 A 
ATOM     12  C   UNL d   1     -31.892  22.004  21.944  0.00  0.00    -0.061 A 
ATOM     13  C   UNL d   1     -33.142  21.951  21.104  0.00  0.00     0.048 C 
ATOM     14  C   UNL d   1     -31.948  21.649  23.275  0.00  0.00     0.027 A 
ATOM     15  C   UNL d   1     -30.790  21.696  24.057  0.00  0.00     0.064 A 
BRANCH  15  16
ATOM     16  C   UNL d   1     -30.842  21.320  25.480  0.00  0.00     0.178 C 
ATOM     17  O   UNL d   1     -31.518  21.965  26.255  0.00  0.00    -0.646 OA
BRANCH  16  18
ATOM     18  O   UNL d   1     -30.138  20.259  25.922  0.00  0.00    -0.773 OA
ATOM     19  H   UNL d   1     -29.897  19.589  25.268  0.00  0.00     0.167 HD
ENDBRANCH  16  18
ENDBRANCH  15  16
ENDBRANCH   7   9
ENDBRANCH   1   7
BRANCH   4  20
ATOM     20  C   UNL d   1     -23.516  23.571  21.930  0.00  0.00     0.031 A 
ATOM     21  C   UNL d   1     -22.350  23.529  22.697  0.00  0.00     0.129 A 
ATOM     22  C   UNL d   1     -21.143  23.897  22.133  0.00  0.00     0.043 A 
ATOM     23  F   UNL d   1     -22.402  23.131  23.987  0.00  0.00    -0.205 F 
ATOM     24  C   UNL d   1     -21.090  24.304  20.812  0.00  0.00     0.003 A 
ATOM     25  C   UNL d   1     -22.242  24.343  20.047  0.00  0.00     0.001 A 
ATOM     26  C   UNL d   1     -23.454  23.984  20.600  0.00  0.00     0.017 A 
ENDBRANCH   4  20
TORSDOF 5
ENDMDL
