MODEL 1
REMARK VINA RESULT:      -9.6      0.000      0.000
REMARK  3 active torsions:
REMARK  status: ('A' for Active; 'I' for Inactive)
REMARK    1  A    between atoms: O_2  and  C_3 
REMARK    2  A    between atoms: C_8  and  N_9 
REMARK       I    between atoms: N_9  and  C_10 
REMARK       I    between atoms: C_10  and  N_12 
REMARK    3  A    between atoms: N_12  and  C_13 
ROOT
ATOM      1  N   UNL d   1     -26.469  24.565  24.011  0.00  0.00    -0.306 N 
ATOM      2  C   UNL d   1     -25.192  24.381  23.618  0.00  0.00     0.325 C 
ATOM      3  O   UNL d   1     -24.696  23.272  23.662  0.00  0.00    -0.247 OA
ATOM      4  N   UNL d   1     -24.465  25.427  23.177  0.00  0.00    -0.308 N 
ATOM      5  H   UNL d   1     -26.890  25.432  23.901  0.00  0.00     0.171 HD
ATOM      6  H   UNL d   1     -24.832  26.324  23.219  0.00  0.00     0.170 HD
ENDROOT
BRANCH   1   7
ATOM      7  C   UNL d   1     -27.186  23.504  24.580  0.00  0.00     0.069 A 
ATOM      8  C   UNL d   1     -28.130  22.814  23.823  0.00  0.00     0.095 A 
ATOM      9  C   UNL d   1     -28.832  21.763  24.388  0.00  0.00     0.039 A 
ATOM     10  C   UNL d   1     -28.603  21.406  25.705  0.00  0.00     0.003 A 
ATOM     11  C   UNL d   1     -27.670  22.094  26.459  0.00  0.00     0.002 A 
ATOM     12  C   UNL d   1     -26.962  23.141  25.901  0.00  0.00     0.032 A 
BRANCH   8  13
ATOM     13  O   UNL d   1     -28.358  23.169  22.530  0.00  0.00    -0.354 OA
ATOM     14  C   UNL d   1     -29.380  22.455  21.831  0.00  0.00     0.210 C 
ENDBRANCH   8  13
ENDBRANCH   1   7
BRANCH   4  15
ATOM     15  C   UNL d   1     -23.185  25.219  22.659  0.00  0.00     0.047 A 
ATOM     16  C   UNL d   1     -22.051  25.689  23.355  0.00  0.00     0.001 A 
ATOM     17  C   UNL d   1     -20.762  25.466  22.811  0.00  0.00    -0.024 A 
ATOM     18  C   UNL d   1     -22.176  26.370  24.576  0.00  0.00     0.014 A 
ATOM     19  C   UNL d   1     -20.636  24.784  21.589  0.00  0.00     0.012 A 
ATOM     20  C   UNL d   1     -19.632  25.929  23.508  0.00  0.00     0.012 A 
ATOM     21  C   UNL d   1     -21.748  24.341  20.939  0.00  0.00     0.003 A 
ATOM     22  C   UNL d   1     -23.019  24.554  21.464  0.00  0.00     0.030 A 
ATOM     23  C   UNL d   1     -19.792  26.590  24.687  0.00  0.00     0.001 A 
ATOM     24  C   UNL d   1     -21.060  26.807  25.221  0.00  0.00     0.001 A 
ENDBRANCH   4  15
TORSDOF 3
ENDMDL
