MODEL 1
REMARK VINA RESULT:     -11.4      0.000      0.000
REMARK  5 active torsions:
REMARK  status: ('A' for Active; 'I' for Inactive)
REMARK    1  A    between atoms: O_2  and  C_3 
REMARK    2  A    between atoms: C_8  and  C_9 
REMARK    3  A    between atoms: C_12  and  C_13 
REMARK    4  A    between atoms: C_15  and  C_16 
REMARK    5  A    between atoms: C_16  and  O_18 
ROOT
ATOM      1  C   UNL d   1     -28.322  22.446  23.271  0.00  0.00    -0.023 A 
ATOM      2  C   UNL d   1     -28.812  21.939  24.474  0.00  0.00     0.033 A 
ATOM      3  C   UNL d   1     -30.154  21.597  24.595  0.00  0.00     0.069 A 
ATOM      4  C   UNL d   1     -31.019  21.767  23.492  0.00  0.00     0.102 A 
ATOM      5  N   UNL d   1     -32.333  21.535  23.301  0.00  0.00    -0.233 NA
ATOM      6  C   UNL d   1     -32.669  21.867  22.086  0.00  0.00     0.101 A 
ATOM      7  C   UNL d   1     -34.057  21.754  21.512  0.00  0.00     0.091 C 
ATOM      8  N   UNL d   1     -31.582  22.326  21.413  0.00  0.00    -0.343 N 
ATOM      9  H   UNL d   1     -31.563  22.634  20.493  0.00  0.00     0.167 HD
ATOM     10  C   UNL d   1     -30.511  22.279  22.286  0.00  0.00     0.064 A 
ATOM     11  C   UNL d   1     -29.172  22.615  22.181  0.00  0.00     0.044 A 
ENDROOT
BRANCH   1  12
ATOM     12  C   UNL d   1     -26.889  22.808  23.153  0.00  0.00    -0.026 A 
ATOM     13  C   UNL d   1     -26.390  23.913  23.840  0.00  0.00     0.013 A 
ATOM     14  C   UNL d   1     -25.058  24.248  23.731  0.00  0.00     0.013 A 
ATOM     15  C   UNL d   1     -24.209  23.482  22.932  0.00  0.00    -0.023 A 
ATOM     16  C   UNL d   1     -24.709  22.377  22.244  0.00  0.00     0.013 A 
ATOM     17  C   UNL d   1     -26.039  22.039  22.358  0.00  0.00     0.013 A 
BRANCH  15  18
ATOM     18  C   UNL d   1     -22.776  23.843  22.815  0.00  0.00     0.007 A 
ATOM     19  C   UNL d   1     -22.288  24.407  21.632  0.00  0.00     0.079 A 
ATOM     20  C   UNL d   1     -20.947  24.742  21.532  0.00  0.00     0.037 A 
ATOM     21  C   UNL d   1     -20.096  24.518  22.597  0.00  0.00     0.003 A 
ATOM     22  C   UNL d   1     -20.576  23.959  23.769  0.00  0.00     0.001 A 
ATOM     23  C   UNL d   1     -21.911  23.627  23.885  0.00  0.00     0.015 A 
BRANCH  19  24
ATOM     24  O   UNL d   1     -23.126  24.627  20.585  0.00  0.00    -0.355 OA
ATOM     25  C   UNL d   1     -23.034  23.726  19.480  0.00  0.00     0.210 C 
ENDBRANCH  19  24
ENDBRANCH  15  18
ENDBRANCH   1  12
BRANCH   3  26
ATOM     26  C   UNL d   1     -30.671  21.063  25.867  0.00  0.00     0.178 C 
ATOM     27  O   UNL d   1     -31.496  21.692  26.499  0.00  0.00    -0.646 OA
BRANCH  26  28
ATOM     28  O   UNL d   1     -30.229  19.876  26.328  0.00  0.00    -0.773 OA
ATOM     29  H   UNL d   1     -30.370  19.105  25.761  0.00  0.00     0.167 HD
ENDBRANCH  26  28
ENDBRANCH   3  26
TORSDOF 5
ENDMDL
