MODEL 1
REMARK VINA RESULT:     -12.8      0.000      0.000
REMARK  4 active torsions:
REMARK  status: ('A' for Active; 'I' for Inactive)
REMARK       I    between atoms: N_1  and  C_2 
REMARK    1  A    between atoms: C_2  and  C_4 
REMARK    2  A    between atoms: C_11  and  C_12 
REMARK    3  A    between atoms: C_15  and  C_16 
REMARK    4  A    between atoms: C_20  and  C_21 
REMARK       I    between atoms: C_21  and  N_23 
ROOT
ATOM      1  C   UNL d   1     -27.680  22.366  23.413  0.00  0.00     0.010 A 
ATOM      2  C   UNL d   1     -26.990  21.745  22.369  0.00  0.00     0.016 A 
ATOM      3  C   UNL d   1     -25.722  22.168  22.035  0.00  0.00     0.013 A 
ATOM      4  C   UNL d   1     -25.123  23.207  22.745  0.00  0.00    -0.025 A 
ATOM      5  C   UNL d   1     -25.809  23.824  23.792  0.00  0.00     0.013 A 
ATOM      6  C   UNL d   1     -27.077  23.407  24.125  0.00  0.00     0.016 A 
ENDROOT
BRANCH   1   7
ATOM      7  C   UNL d   1     -29.041  21.917  23.769  0.00  0.00     0.139 A 
ATOM      8  N   UNL d   1     -29.378  21.258  24.918  0.00  0.00    -0.338 N 
ATOM      9  C   UNL d   1     -30.738  21.021  24.866  0.00  0.00     0.064 A 
ATOM     10  H   UNL d   1     -28.775  21.004  25.635  0.00  0.00     0.167 HD
ATOM     11  C   UNL d   1     -31.640  20.405  25.720  0.00  0.00     0.032 A 
ATOM     12  C   UNL d   1     -31.183  21.565  23.647  0.00  0.00     0.101 A 
ATOM     13  C   UNL d   1     -32.977  20.322  25.380  0.00  0.00     0.003 A 
ATOM     14  C   UNL d   1     -33.434  20.850  24.187  0.00  0.00     0.020 A 
ATOM     15  C   UNL d   1     -32.551  21.475  23.309  0.00  0.00     0.062 A 
ATOM     16  N   UNL d   1     -30.113  22.096  23.031  0.00  0.00    -0.227 NA
BRANCH  15  17
ATOM     17  C   UNL d   1     -33.040  22.038  22.038  0.00  0.00     0.251 C 
ATOM     18  N   UNL d   1     -32.288  21.940  20.924  0.00  0.00    -0.366 N 
ATOM     19  H   UNL d   1     -31.425  21.498  20.959  0.00  0.00     0.159 HD
ATOM     20  H   UNL d   1     -32.610  22.310  20.087  0.00  0.00     0.159 HD
ATOM     21  O   UNL d   1     -34.122  22.591  21.995  0.00  0.00    -0.268 OA
ENDBRANCH  15  17
ENDBRANCH   1   7
BRANCH   4  22
ATOM     22  C   UNL d   1     -23.756  23.658  22.388  0.00  0.00    -0.007 A 
ATOM     23  C   UNL d   1     -22.850  24.026  23.383  0.00  0.00     0.032 A 
ATOM     24  C   UNL d   1     -21.573  24.441  22.992  0.00  0.00     0.050 A 
ATOM     25  C   UNL d   1     -21.260  24.478  21.632  0.00  0.00     0.133 A 
ATOM     26  N   UNL d   1     -22.148  24.127  20.725  0.00  0.00    -0.271 NA
ATOM     27  C   UNL d   1     -23.360  23.727  21.051  0.00  0.00     0.128 A 
BRANCH  24  28
ATOM     28  C   UNL d   1     -20.570  24.837  24.004  0.00  0.00     0.255 C 
ATOM     29  O   UNL d   1     -19.636  24.100  24.255  0.00  0.00    -0.267 OA
ATOM     30  N   UNL d   1     -20.691  26.015  24.648  0.00  0.00    -0.348 N 
ATOM     31  C   UNL d   1     -19.709  26.587  25.580  0.00  0.00     0.126 C 
ATOM     32  C   UNL d   1     -21.828  26.946  24.529  0.00  0.00     0.126 C 
ATOM     33  C   UNL d   1     -20.284  27.926  26.087  0.00  0.00     0.021 C 
ATOM     34  C   UNL d   1     -21.808  27.762  25.848  0.00  0.00     0.021 C 
ENDBRANCH  24  28
ENDBRANCH   4  22
TORSDOF 4
ENDMDL
