MODEL 1
REMARK VINA RESULT:     -10.1      0.000      0.000
REMARK  5 active torsions:
REMARK  status: ('A' for Active; 'I' for Inactive)
REMARK    1  A    between atoms: C_2  and  O_3 
REMARK    2  A    between atoms: C_2  and  C_4 
REMARK    3  A    between atoms: C_5  and  O_6 
REMARK    4  A    between atoms: C_7  and  C_8 
REMARK    5  A    between atoms: C_11  and  O_12 
ROOT
ATOM      1  C   UNL d   1     -30.163  21.552  24.493  0.00  0.00     0.085 A 
ATOM      2  C   UNL d   1     -28.800  21.786  24.305  0.00  0.00     0.113 A 
ATOM      3  C   UNL d   1     -28.337  22.163  23.028  0.00  0.00     0.102 A 
ATOM      4  N   UNL d   1     -29.145  22.294  21.999  0.00  0.00    -0.245 NA
ATOM      5  C   UNL d   1     -30.460  22.084  22.089  0.00  0.00     0.069 A 
ATOM      6  C   UNL d   1     -31.295  22.233  20.966  0.00  0.00     0.035 A 
ATOM      7  C   UNL d   1     -32.632  22.015  21.084  0.00  0.00     0.044 A 
ATOM      8  C   UNL d   1     -33.195  21.642  22.306  0.00  0.00     0.117 A 
ATOM      9  F   UNL d   1     -34.527  21.432  22.391  0.00  0.00    -0.206 F 
ATOM     10  C   UNL d   1     -32.415  21.489  23.416  0.00  0.00     0.057 A 
ATOM     11  C   UNL d   1     -31.037  21.706  23.327  0.00  0.00     0.015 A 
ENDROOT
BRANCH   3  12
ATOM     12  C   UNL d   1     -26.889  22.414  22.836  0.00  0.00    -0.004 A 
ATOM     13  C   UNL d   1     -26.245  23.401  23.582  0.00  0.00     0.016 A 
ATOM     14  C   UNL d   1     -24.898  23.631  23.401  0.00  0.00     0.037 A 
ATOM     15  C   UNL d   1     -24.182  22.882  22.475  0.00  0.00     0.065 A 
ATOM     16  C   UNL d   1     -24.821  21.899  21.730  0.00  0.00     0.037 A 
ATOM     17  C   UNL d   1     -26.169  21.667  21.903  0.00  0.00     0.016 A 
BRANCH  15  18
ATOM     18  O   UNL d   1     -22.855  23.112  22.298  0.00  0.00    -0.361 OA
ATOM     19  H   UNL d   1     -22.337  22.313  22.130  0.00  0.00     0.217 HD
ENDBRANCH  15  18
ENDBRANCH   3  12
BRANCH   2  20
ATOM     20  O   UNL d   1     -27.934  21.656  25.339  0.00  0.00    -0.357 OA
ATOM     21  H   UNL d   1     -27.917  22.418  25.935  0.00  0.00     0.217 HD
ENDBRANCH   2  20
BRANCH   1  22
ATOM     22  C   UNL d   1     -30.701  21.162  25.808  0.00  0.00     0.180 C 
ATOM     23  O   UNL d   1     -31.401  21.934  26.432  0.00  0.00    -0.646 OA
BRANCH  22  24
ATOM     24  O   UNL d   1     -30.416  19.947  26.318  0.00  0.00    -0.773 OA
ATOM     25  H   UNL d   1     -30.230  19.902  27.266  0.00  0.00     0.167 HD
ENDBRANCH  22  24
ENDBRANCH   1  22
TORSDOF 5
ENDMDL
