MODEL 1
REMARK VINA RESULT:      -9.8      0.000      0.000
REMARK  6 active torsions:
REMARK  status: ('A' for Active; 'I' for Inactive)
REMARK    1  A    between atoms: O_2  and  C_3 
REMARK    2  A    between atoms: C_12  and  C_13 
REMARK    3  A    between atoms: C_13  and  C_14 
REMARK    4  A    between atoms: C_14  and  C_15 
REMARK    5  A    between atoms: CA_16  and  C_17 
REMARK    6  A    between atoms: C_17  and  OXT_19 
ROOT
ATOM      1  C   UNL d   1     -31.341  21.925  23.237  0.00  0.00     0.044 A 
ATOM      2  CA  UNL d   1     -32.156  21.281  24.113  0.00  0.00     0.122 A 
ATOM      3  N   UNL d   1     -33.314  20.693  23.652  0.00  0.00    -0.302 N 
ATOM      4  H   UNL d   1     -33.897  20.234  24.277  0.00  0.00     0.171 HD
ATOM      5  C   UNL d   1     -33.651  20.744  22.353  0.00  0.00     0.327 A 
ATOM      6  O   UNL d   1     -34.681  20.212  21.987  0.00  0.00    -0.247 OA
ATOM      7  N   UNL d   1     -32.879  21.368  21.445  0.00  0.00    -0.275 N 
ATOM      8  H   UNL d   1     -33.150  21.388  20.515  0.00  0.00     0.173 HD
ATOM      9  C   UNL d   1     -31.733  21.972  21.824  0.00  0.00     0.258 A 
ATOM     10  O   UNL d   1     -31.036  22.542  21.006  0.00  0.00    -0.267 OA
ENDROOT
BRANCH   1  11
ATOM     11  C   UNL d   1     -30.068  22.579  23.707  0.00  0.00     0.051 C 
BRANCH  11  12
ATOM     12  C   UNL d   1     -28.999  21.509  23.938  0.00  0.00     0.046 C 
BRANCH  12  13
ATOM     13  C   UNL d   1     -27.664  22.019  23.458  0.00  0.00    -0.024 A 
ATOM     14  C   UNL d   1     -26.905  22.850  24.286  0.00  0.00     0.075 A 
ATOM     15  C   UNL d   1     -25.695  23.333  23.875  0.00  0.00     0.049 A 
ATOM     16  C   UNL d   1     -25.201  22.981  22.609  0.00  0.00    -0.023 A 
ATOM     17  C   UNL d   1     -25.970  22.135  21.773  0.00  0.00    -0.025 A 
ATOM     18  C   UNL d   1     -23.958  23.453  22.155  0.00  0.00     0.012 A 
ATOM     19  C   UNL d   1     -25.475  21.783  20.506  0.00  0.00     0.012 A 
ATOM     20  C   UNL d   1     -27.214  21.660  22.225  0.00  0.00     0.022 A 
ATOM     21  C   UNL d   1     -24.266  22.260  20.099  0.00  0.00     0.001 A 
ATOM     22  C   UNL d   1     -23.510  23.092  20.922  0.00  0.00     0.001 A 
BRANCH  14  23
ATOM     23  O   UNL d   1     -27.380  23.186  25.514  0.00  0.00    -0.355 OA
ATOM     24  C   UNL d   1     -27.124  22.269  26.582  0.00  0.00     0.210 C 
ENDBRANCH  14  23
ENDBRANCH  12  13
ENDBRANCH  11  12
ENDBRANCH   1  11
BRANCH   2  25
ATOM     25  C   UNL d   1     -31.804  21.212  25.551  0.00  0.00     0.194 C 
ATOM     26  O   UNL d   1     -31.766  22.227  26.216  0.00  0.00    -0.645 OA
BRANCH  25  27
ATOM     27  OXT UNL d   1     -31.524  20.024  26.120  0.00  0.00    -0.772 OA
ATOM     28  HXT UNL d   1     -32.087  19.277  25.877  0.00  0.00     0.167 HD
ENDBRANCH  25  27
ENDBRANCH   2  25
TORSDOF 6
ENDMDL
