MODEL 1
REMARK VINA RESULT:      -9.7      0.000      0.000
REMARK  6 active torsions:
REMARK  status: ('A' for Active; 'I' for Inactive)
REMARK    1  A    between atoms: C_3  and  O_4 
REMARK    2  A    between atoms: O_4  and  C_5 
REMARK    3  A    between atoms: C_12  and  O_13 
REMARK    4  A    between atoms: O_13  and  C_14 
REMARK    5  A    between atoms: N_18  and  C_19 
REMARK    6  A    between atoms: C_22  and  C_23 
ROOT
ATOM      1  C   UNL d   1     -26.075  25.757  24.723  0.00  0.00     0.074 C 
ATOM      2  C   UNL d   1     -25.465  24.687  23.854  0.00  0.00     0.073 A 
ATOM      3  C   UNL d   1     -24.361  24.819  23.079  0.00  0.00     0.154 A 
ATOM      4  C   UNL d   1     -24.139  23.589  22.433  0.00  0.00     0.221 A 
ATOM      5  N   UNL d   1     -25.070  22.749  22.813  0.00  0.00    -0.137 NA
ATOM      6  N   UNL d   1     -25.921  23.412  23.709  0.00  0.00    -0.215 N 
ENDROOT
BRANCH   6   7
ATOM      7  C   UNL d   1     -27.039  22.861  24.340  0.00  0.00     0.150 A 
ATOM      8  N   UNL d   1     -27.006  22.626  25.642  0.00  0.00    -0.241 NA
ATOM      9  C   UNL d   1     -28.042  22.113  26.278  0.00  0.00     0.126 A 
ATOM     10  C   UNL d   1     -29.201  21.789  25.600  0.00  0.00    -0.036 A 
ATOM     11  C   UNL d   1     -29.272  22.015  24.232  0.00  0.00     0.013 A 
ATOM     12  C   UNL d   1     -28.172  22.559  23.594  0.00  0.00     0.053 A 
BRANCH  10  13
ATOM     13  C   UNL d   1     -30.375  21.198  26.338  0.00  0.00     0.020 A 
ATOM     14  C   UNL d   1     -31.759  21.361  25.706  0.00  0.00     0.010 A 
ATOM     15  C   UNL d   1     -31.072  19.993  25.705  0.00  0.00     0.010 A 
ENDBRANCH  10  13
ENDBRANCH   6   7
BRANCH   3  16
ATOM     16  O   UNL d   1     -23.603  25.943  22.948  0.00  0.00    -0.304 OA
BRANCH  16  17
ATOM     17  C   UNL d   1     -22.484  26.051  23.712  0.00  0.00     0.076 A 
ATOM     18  C   UNL d   1     -21.345  25.331  23.380  0.00  0.00     0.040 A 
ATOM     19  C   UNL d   1     -20.208  25.441  24.158  0.00  0.00     0.045 A 
ATOM     20  C   UNL d   1     -20.206  26.269  25.268  0.00  0.00     0.116 A 
ATOM     21  C   UNL d   1     -21.342  26.988  25.600  0.00  0.00     0.045 A 
ATOM     22  F   UNL d   1     -19.093  26.376  26.027  0.00  0.00    -0.206 F 
ATOM     23  C   UNL d   1     -22.479  26.884  24.822  0.00  0.00     0.040 A 
ENDBRANCH  16  17
ENDBRANCH   3  16
BRANCH   4  24
ATOM     24  O   UNL d   1     -23.127  23.317  21.565  0.00  0.00    -0.326 OA
BRANCH  24  25
ATOM     25  C   UNL d   1     -23.264  23.817  20.234  0.00  0.00     0.122 C 
ATOM     26  C   UNL d   1     -23.825  22.716  19.331  0.00  0.00     0.040 C 
ATOM     27  C   UNL d   1     -21.895  24.257  19.711  0.00  0.00     0.040 C 
ENDBRANCH  24  25
ENDBRANCH   4  24
TORSDOF 6
ENDMDL
