MODEL 1
REMARK VINA RESULT:     -11.4      0.000      0.000
REMARK  6 active torsions:
REMARK  status: ('A' for Active; 'I' for Inactive)
REMARK    1  A    between atoms: C_5  and  N_6 
REMARK    2  A    between atoms: N_6  and  C_7 
REMARK    3  A    between atoms: C_10  and  C_11 
REMARK    4  A    between atoms: C_15  and  C_16 
REMARK       I    between atoms: C_16  and  N_17 
REMARK    5  A    between atoms: C_23  and  C_24 
REMARK    6  A    between atoms: C_24  and  O_26 
ROOT
ATOM      1  C   UNL d   1     -26.968  22.659  23.640  0.00  0.00     0.050 A 
ATOM      2  C   UNL d   1     -26.327  23.844  23.982  0.00  0.00     0.146 A 
ATOM      3  N   UNL d   1     -25.202  24.195  23.396  0.00  0.00    -0.258 NA
ATOM      4  C   UNL d   1     -24.635  23.438  22.464  0.00  0.00     0.072 A 
ATOM      5  C   UNL d   1     -25.221  22.236  22.071  0.00  0.00    -0.030 A 
ATOM      6  C   UNL d   1     -24.573  21.382  21.012  0.00  0.00     0.050 C 
ATOM      7  C   UNL d   1     -26.406  21.839  22.662  0.00  0.00     0.040 A 
ENDROOT
BRANCH   1   8
ATOM      8  N   UNL d   1     -28.162  22.294  24.267  0.00  0.00    -0.354 N 
ATOM      9  H   UNL d   1     -28.173  22.100  25.216  0.00  0.00     0.166 HD
BRANCH   8  10
ATOM     10  C   UNL d   1     -29.335  22.211  23.528  0.00  0.00     0.049 A 
ATOM     11  C   UNL d   1     -29.337  22.545  22.179  0.00  0.00     0.031 A 
ATOM     12  C   UNL d   1     -30.503  22.457  21.446  0.00  0.00     0.009 A 
ATOM     13  C   UNL d   1     -31.681  22.046  22.049  0.00  0.00    -0.061 A 
ATOM     14  C   UNL d   1     -32.948  21.960  21.237  0.00  0.00     0.048 C 
ATOM     15  C   UNL d   1     -31.701  21.715  23.386  0.00  0.00     0.027 A 
ATOM     16  C   UNL d   1     -30.528  21.793  24.141  0.00  0.00     0.064 A 
BRANCH  16  17
ATOM     17  C   UNL d   1     -30.542  21.441  25.571  0.00  0.00     0.178 C 
ATOM     18  O   UNL d   1     -31.355  21.952  26.316  0.00  0.00    -0.646 OA
BRANCH  17  19
ATOM     19  O   UNL d   1     -29.653  20.551  26.054  0.00  0.00    -0.773 OA
ATOM     20  H   UNL d   1     -29.735  20.310  26.987  0.00  0.00     0.167 HD
ENDBRANCH  17  19
ENDBRANCH  16  17
ENDBRANCH   8  10
ENDBRANCH   1   8
BRANCH   4  21
ATOM     21  C   UNL d   1     -23.368  23.878  21.833  0.00  0.00    -0.006 A 
ATOM     22  C   UNL d   1     -22.195  23.921  22.580  0.00  0.00     0.030 A 
ATOM     23  C   UNL d   1     -21.008  24.335  21.980  0.00  0.00     0.032 A 
ATOM     24  C   UNL d   1     -21.002  24.703  20.632  0.00  0.00     0.017 A 
ATOM     25  C   UNL d   1     -22.170  24.656  19.897  0.00  0.00     0.002 A 
ATOM     26  C   UNL d   1     -23.348  24.242  20.486  0.00  0.00     0.014 A 
BRANCH  23  27
ATOM     27  C   UNL d   1     -19.757  24.385  22.766  0.00  0.00     0.249 C 
ATOM     28  N   UNL d   1     -18.586  24.646  22.154  0.00  0.00    -0.366 N 
ATOM     29  H   UNL d   1     -18.562  24.802  21.196  0.00  0.00     0.159 HD
ATOM     30  H   UNL d   1     -17.764  24.679  22.670  0.00  0.00     0.159 HD
ATOM     31  O   UNL d   1     -19.785  24.190  23.966  0.00  0.00    -0.268 OA
ENDBRANCH  23  27
ENDBRANCH   4  21
TORSDOF 6
ENDMDL
