MODEL 1
REMARK VINA RESULT:      -9.6      0.000      0.000
REMARK  8 active torsions:
REMARK  status: ('A' for Active; 'I' for Inactive)
REMARK    1  A    between atoms: C_2  and  C_3 
REMARK    2  A    between atoms: C_3  and  C_4 
REMARK    3  A    between atoms: C_4  and  O_6 
REMARK    4  A    between atoms: O_6  and  C_7 
REMARK    5  A    between atoms: C_9  and  N_10 
REMARK    6  A    between atoms: C_12  and  C_13 
REMARK    7  A    between atoms: C_22  and  C_23 
REMARK       I    between atoms: C_23  and  N_25 
REMARK    8  A    between atoms: N_25  and  C_26 
ROOT
ATOM      1  C   UNL d   1     -26.383  23.126  23.323  0.00  0.00     0.087 A 
ATOM      2  C   UNL d   1     -27.751  22.983  23.479  0.00  0.00     0.073 A 
ATOM      3  C   UNL d   1     -28.469  22.176  22.609  0.00  0.00     0.104 A 
ATOM      4  C   UNL d   1     -27.817  21.505  21.574  0.00  0.00     0.146 A 
ATOM      5  F   UNL d   1     -28.524  20.721  20.729  0.00  0.00    -0.204 F 
ATOM      6  C   UNL d   1     -26.458  21.641  21.409  0.00  0.00     0.064 A 
ATOM      7  C   UNL d   1     -25.726  22.457  22.279  0.00  0.00     0.068 A 
ENDROOT
BRANCH   7   8
ATOM      8  C   UNL d   1     -24.273  22.610  22.102  0.00  0.00     0.259 C 
ATOM      9  O   UNL d   1     -23.565  21.625  22.000  0.00  0.00    -0.267 OA
ATOM     10  N   UNL d   1     -23.726  23.840  22.052  0.00  0.00    -0.320 N 
ATOM     11  H   UNL d   1     -24.277  24.623  22.211  0.00  0.00     0.169 HD
BRANCH  10  12
ATOM     12  C   UNL d   1     -22.362  23.990  21.773  0.00  0.00     0.073 A 
ATOM     13  C   UNL d   1     -21.417  23.757  22.767  0.00  0.00     0.143 A 
ATOM     14  C   UNL d   1     -20.070  23.901  22.485  0.00  0.00     0.044 A 
ATOM     15  F   UNL d   1     -21.813  23.387  24.004  0.00  0.00    -0.204 F 
ATOM     16  C   UNL d   1     -19.666  24.286  21.220  0.00  0.00     0.003 A 
ATOM     17  C   UNL d   1     -20.604  24.522  20.232  0.00  0.00     0.002 A 
ATOM     18  C   UNL d   1     -21.951  24.375  20.505  0.00  0.00     0.033 A 
ENDBRANCH  10  12
ENDBRANCH   7   8
BRANCH   1  19
ATOM     19  O   UNL d   1     -25.679  23.915  24.174  0.00  0.00    -0.345 OA
BRANCH  19  20
ATOM     20  C   UNL d   1     -26.014  25.304  24.197  0.00  0.00     0.124 C 
ATOM     21  C   UNL d   1     -26.334  25.728  25.632  0.00  0.00     0.040 C 
BRANCH  20  22
ATOM     22  C   UNL d   1     -24.831  26.122  23.675  0.00  0.00     0.032 C 
BRANCH  22  23
ATOM     23  C   UNL d   1     -23.712  26.124  24.718  0.00  0.00    -0.002 C 
ATOM     24  C   UNL d   1     -22.518  26.918  24.183  0.00  0.00     0.005 C 
ENDBRANCH  22  23
ENDBRANCH  20  22
ENDBRANCH  19  20
ENDBRANCH   1  19
BRANCH   3  25
ATOM     25  N   UNL d   1     -29.849  22.034  22.769  0.00  0.00    -0.178 N 
ATOM     26  C   UNL d   1     -30.487  21.639  23.891  0.00  0.00     0.351 A 
ATOM     27  N   UNL d   1     -31.809  21.640  23.625  0.00  0.00    -0.289 N 
ATOM     28  O   UNL d   1     -29.965  21.340  24.950  0.00  0.00    -0.244 OA
ATOM     29  C   UNL d   1     -31.986  22.031  22.321  0.00  0.00     0.130 A 
ATOM     30  C   UNL d   1     -32.873  21.279  24.565  0.00  0.00     0.162 C 
ATOM     31  N   UNL d   1     -30.828  22.270  21.794  0.00  0.00    -0.149 NA
BRANCH  29  32
ATOM     32  C   UNL d   1     -33.313  22.160  21.616  0.00  0.00     0.076 C 
ATOM     33  C   UNL d   1     -33.789  20.777  21.168  0.00  0.00     0.013 C 
ENDBRANCH  29  32
ENDBRANCH   3  25
TORSDOF 8
ENDMDL
