MODEL 1
REMARK VINA RESULT:      -9.9      0.000      0.000
REMARK  7 active torsions:
REMARK  status: ('A' for Active; 'I' for Inactive)
REMARK    1  A    between atoms: C_2  and  O_3 
REMARK    2  A    between atoms: C_2  and  C_32 
REMARK    3  A    between atoms: O_3  and  C_4 
REMARK    4  A    between atoms: C_6  and  N_7 
REMARK    5  A    between atoms: C_9  and  C_10 
REMARK    6  A    between atoms: C_20  and  C_21 
REMARK       I    between atoms: C_21  and  N_23 
REMARK    7  A    between atoms: N_23  and  C_24 
ROOT
ATOM      1  C   UNL d   1     -24.765  23.358  22.655  0.00  0.00     0.087 A 
ATOM      2  C   UNL d   1     -26.034  22.835  22.833  0.00  0.00     0.073 A 
ATOM      3  C   UNL d   1     -26.874  23.362  23.803  0.00  0.00     0.104 A 
ATOM      4  C   UNL d   1     -26.445  24.421  24.603  0.00  0.00     0.146 A 
ATOM      5  F   UNL d   1     -27.268  24.930  25.545  0.00  0.00    -0.204 F 
ATOM      6  C   UNL d   1     -25.184  24.950  24.433  0.00  0.00     0.064 A 
ATOM      7  C   UNL d   1     -24.331  24.423  23.457  0.00  0.00     0.068 A 
ENDROOT
BRANCH   7   8
ATOM      8  C   UNL d   1     -22.983  24.985  23.275  0.00  0.00     0.259 C 
ATOM      9  O   UNL d   1     -22.832  26.009  22.635  0.00  0.00    -0.267 OA
ATOM     10  N   UNL d   1     -21.914  24.365  23.814  0.00  0.00    -0.318 N 
ATOM     11  H   UNL d   1     -22.023  23.508  24.256  0.00  0.00     0.169 HD
BRANCH  10  12
ATOM     12  C   UNL d   1     -20.648  24.959  23.740  0.00  0.00     0.113 A 
ATOM     13  C   UNL d   1     -20.267  25.910  24.679  0.00  0.00     0.146 A 
ATOM     14  C   UNL d   1     -19.015  26.494  24.602  0.00  0.00     0.045 A 
ATOM     15  F   UNL d   1     -21.119  26.263  25.666  0.00  0.00    -0.204 F 
ATOM     16  C   UNL d   1     -18.143  26.131  23.592  0.00  0.00     0.006 A 
ATOM     17  C   UNL d   1     -18.518  25.186  22.655  0.00  0.00     0.045 A 
ATOM     18  C   UNL d   1     -19.766  24.593  22.729  0.00  0.00     0.146 A 
ATOM     19  F   UNL d   1     -20.128  23.666  21.817  0.00  0.00    -0.204 F 
ENDBRANCH  10  12
ENDBRANCH   7   8
BRANCH   1  20
ATOM     20  O   UNL d   1     -23.940  22.839  21.710  0.00  0.00    -0.336 OA
BRANCH  20  21
ATOM     21  C   UNL d   1     -24.038  23.386  20.394  0.00  0.00     0.232 C 
ATOM     22  C   UNL d   1     -22.651  23.826  19.920  0.00  0.00     0.049 C 
BRANCH  21  23
ATOM     23  C   UNL d   1     -24.589  22.324  19.440  0.00  0.00     0.413 C 
ATOM     24  F   UNL d   1     -23.768  21.192  19.477  0.00  0.00    -0.168 F 
ATOM     25  F   UNL d   1     -25.886  21.973  19.831  0.00  0.00    -0.168 F 
ATOM     26  F   UNL d   1     -24.618  22.837  18.139  0.00  0.00    -0.168 F 
ENDBRANCH  21  23
ENDBRANCH  20  21
ENDBRANCH   1  20
BRANCH   3  27
ATOM     27  N   UNL d   1     -28.154  22.830  23.980  0.00  0.00    -0.178 N 
ATOM     28  C   UNL d   1     -28.532  21.960  24.939  0.00  0.00     0.351 A 
ATOM     29  N   UNL d   1     -29.842  21.703  24.756  0.00  0.00    -0.288 N 
ATOM     30  O   UNL d   1     -27.821  21.495  25.811  0.00  0.00    -0.244 OA
ATOM     31  C   UNL d   1     -30.276  22.423  23.669  0.00  0.00     0.135 A 
ATOM     32  C   UNL d   1     -30.663  20.808  25.575  0.00  0.00     0.162 C 
ATOM     33  N   UNL d   1     -29.283  23.106  23.197  0.00  0.00    -0.149 NA
BRANCH  31  34
ATOM     34  C   UNL d   1     -31.679  22.423  23.121  0.00  0.00     0.057 A 
ATOM     35  C   UNL d   1     -31.866  22.032  21.653  0.00  0.00     0.013 A 
ATOM     36  C   UNL d   1     -32.298  21.071  22.762  0.00  0.00     0.013 A 
ENDBRANCH  31  34
ENDBRANCH   3  27
TORSDOF 7
ENDMDL
