MODEL 1
REMARK VINA RESULT:      -8.7      0.000      0.000
REMARK  7 active torsions:
REMARK  status: ('A' for Active; 'I' for Inactive)
REMARK    1  A    between atoms: C_2  and  N_3 
REMARK    2  A    between atoms: C_4  and  C_5 
REMARK    3  A    between atoms: C_5  and  O_6 
REMARK    4  A    between atoms: N_8  and  C_9 
REMARK    5  A    between atoms: C_12  and  C_13 
REMARK    6  A    between atoms: N_17  and  C_18 
REMARK    7  A    between atoms: C_22  and  O_23 
ROOT
ATOM      1  C   UNL d   1     -28.637  22.145  22.333  0.00  0.00     0.103 A 
ATOM      2  C   UNL d   1     -27.922  23.084  23.059  0.00  0.00     0.048 A 
ATOM      3  C   UNL d   1     -26.581  23.306  22.758  0.00  0.00    -0.010 A 
ATOM      4  C   UNL d   1     -25.773  24.284  23.489  0.00  0.00    -0.027 A 
ATOM      5  C   UNL d   1     -24.484  24.457  23.157  0.00  0.00     0.110 A 
ATOM      6  N   UNL d   1     -23.886  23.745  22.153  0.00  0.00    -0.271 N 
ATOM      7  C   UNL d   1     -24.552  22.829  21.424  0.00  0.00     0.264 A 
ATOM      8  O   UNL d   1     -23.986  22.219  20.535  0.00  0.00    -0.267 OA
ATOM      9  C   UNL d   1     -25.966  22.571  21.715  0.00  0.00     0.046 A 
ATOM     10  C   UNL d   1     -26.706  21.630  20.998  0.00  0.00     0.062 A 
ATOM     11  C   UNL d   1     -28.022  21.424  21.306  0.00  0.00     0.146 A 
ATOM     12  F   UNL d   1     -28.736  20.512  20.611  0.00  0.00    -0.204 F 
ENDROOT
BRANCH   1  13
ATOM     13  N   UNL d   1     -29.983  21.918  22.631  0.00  0.00    -0.178 N 
ATOM     14  N   UNL d   1     -30.501  21.487  23.859  0.00  0.00    -0.147 NA
ATOM     15  C   UNL d   1     -31.787  21.393  23.744  0.00  0.00     0.154 A 
ATOM     16  N   UNL d   1     -32.145  21.752  22.468  0.00  0.00    -0.283 N 
ATOM     17  C   UNL d   1     -31.026  22.080  21.790  0.00  0.00     0.351 A 
ATOM     18  O   UNL d   1     -30.967  22.450  20.631  0.00  0.00    -0.244 OA
BRANCH  15  19
ATOM     19  C   UNL d   1     -32.736  20.961  24.831  0.00  0.00     0.244 C 
BRANCH  19  20
ATOM     20  O   UNL d   1     -32.082  21.053  26.098  0.00  0.00    -0.393 OA
ATOM     21  H   UNL d   1     -32.439  21.742  26.676  0.00  0.00     0.209 HD
ENDBRANCH  19  20
ENDBRANCH  15  19
BRANCH  16  22
ATOM     22  C   UNL d   1     -33.509  21.780  21.934  0.00  0.00     0.131 C 
ATOM     23  C   UNL d   1     -33.903  20.377  21.467  0.00  0.00     0.027 C 
ENDBRANCH  16  22
ENDBRANCH   1  13
BRANCH   4  24
ATOM     24  C   UNL d   1     -26.384  25.090  24.607  0.00  0.00     0.013 C 
ATOM     25  C   UNL d   1     -26.757  24.160  25.762  0.00  0.00     0.015 C 
ATOM     26  C   UNL d   1     -25.374  26.131  25.096  0.00  0.00     0.015 C 
ENDBRANCH   4  24
BRANCH   6  27
ATOM     27  C   UNL d   1     -22.538  23.979  21.873  0.00  0.00     0.161 A 
ATOM     28  C   UNL d   1     -21.603  23.923  22.898  0.00  0.00     0.113 A 
ATOM     29  C   UNL d   1     -20.263  24.152  22.601  0.00  0.00     0.095 A 
ATOM     30 CL   UNL d   1     -22.097  23.564  24.522  0.00  0.00    -0.077 Cl
ATOM     31  C   UNL d   1     -19.916  24.441  21.283  0.00  0.00     0.058 A 
ATOM     32  C   UNL d   1     -20.904  24.486  20.321  0.00  0.00     0.122 A 
ATOM     33  N   UNL d   1     -22.165  24.257  20.633  0.00  0.00    -0.241 NA
BRANCH  29  34
ATOM     34  O   UNL d   1     -19.316  24.100  23.574  0.00  0.00    -0.354 OA
ATOM     35  C   UNL d   1     -18.943  25.337  24.182  0.00  0.00     0.210 C 
ENDBRANCH  29  34
ENDBRANCH   6  27
TORSDOF 7
ENDMDL
