MODEL 1
REMARK VINA RESULT:     -11.1      0.000      0.000
REMARK  5 active torsions:
REMARK  status: ('A' for Active; 'I' for Inactive)
REMARK    1  A    between atoms: C_2  and  O_3 
REMARK    2  A    between atoms: C_2  and  C_4 
REMARK    3  A    between atoms: C_5  and  C_6 
REMARK       I    between atoms: C_6  and  N_8 
REMARK    4  A    between atoms: N_8  and  C_9 
REMARK    5  A    between atoms: C_12  and  C_13 
ROOT
ATOM      1  C   UNL d   1     -27.976  22.115  23.546  0.00  0.00     0.074 A 
ATOM      2  C   UNL d   1     -27.497  22.975  24.528  0.00  0.00     0.034 A 
ATOM      3  C   UNL d   1     -26.233  23.514  24.418  0.00  0.00     0.014 A 
ATOM      4  C   UNL d   1     -25.435  23.202  23.318  0.00  0.00    -0.023 A 
ATOM      5  C   UNL d   1     -25.913  22.334  22.337  0.00  0.00     0.057 A 
ATOM      6  C   UNL d   1     -27.179  21.796  22.450  0.00  0.00     0.143 A 
ATOM      7  F   UNL d   1     -27.645  20.959  21.496  0.00  0.00    -0.204 F 
ENDROOT
BRANCH   1   8
ATOM      8  N   UNL d   1     -29.257  21.569  23.660  0.00  0.00    -0.321 N 
ATOM      9  C   UNL d   1     -30.302  22.171  23.059  0.00  0.00     0.253 C 
ATOM     10  O   UNL d   1     -30.116  23.129  22.334  0.00  0.00    -0.268 OA
ATOM     11  H   UNL d   1     -29.394  20.757  24.173  0.00  0.00     0.169 HD
BRANCH   9  12
ATOM     12  C   UNL d   1     -31.671  21.666  23.280  0.00  0.00     0.023 C 
ATOM     13  C   UNL d   1     -32.106  21.116  24.423  0.00  0.00     0.027 C 
ATOM     14  C   UNL d   1     -33.557  20.712  24.296  0.00  0.00     0.046 C 
ATOM     15  C   UNL d   1     -33.838  20.703  22.777  0.00  0.00     0.010 C 
ATOM     16  C   UNL d   1     -32.780  21.705  22.254  0.00  0.00     0.045 C 
BRANCH  13  17
ATOM     17  C   UNL d   1     -31.284  20.930  25.632  0.00  0.00     0.172 C 
ATOM     18  O   UNL d   1     -31.134  21.850  26.411  0.00  0.00    -0.646 OA
BRANCH  17  19
ATOM     19  O   UNL d   1     -30.700  19.740  25.874  0.00  0.00    -0.773 OA
ATOM     20  H   UNL d   1     -31.068  19.208  26.592  0.00  0.00     0.167 HD
ENDBRANCH  17  19
ENDBRANCH  13  17
ENDBRANCH   9  12
ENDBRANCH   1   8
BRANCH   4  21
ATOM     21  C   UNL d   1     -24.078  23.786  23.196  0.00  0.00    -0.026 A 
ATOM     22  C   UNL d   1     -23.904  25.168  23.242  0.00  0.00     0.013 A 
ATOM     23  C   UNL d   1     -22.639  25.706  23.128  0.00  0.00     0.020 A 
ATOM     24  C   UNL d   1     -21.542  24.876  22.969  0.00  0.00     0.011 A 
ATOM     25  C   UNL d   1     -21.709  23.503  22.923  0.00  0.00     0.020 A 
ATOM     26 BR   UNL d   1     -19.811  25.620  22.815  0.00  0.00    -0.051 Br
ATOM     27  C   UNL d   1     -22.970  22.954  23.042  0.00  0.00     0.013 A 
ENDBRANCH   4  21
TORSDOF 5
ENDMDL
