MODEL 1
REMARK VINA RESULT:     -10.6      0.000      0.000
REMARK  7 active torsions:
REMARK  status: ('A' for Active; 'I' for Inactive)
REMARK    1  A    between atoms: C_2  and  O_3 
REMARK    2  A    between atoms: C_2  and  C_33 
REMARK    3  A    between atoms: O_3  and  C_4 
REMARK    4  A    between atoms: C_6  and  N_7 
REMARK    5  A    between atoms: C_14  and  O_15 
REMARK    6  A    between atoms: C_21  and  C_22 
REMARK       I    between atoms: C_22  and  N_24 
REMARK    7  A    between atoms: N_24  and  C_25 
ROOT
ATOM      1  C   UNL d   1     -24.634  23.371  22.637  0.00  0.00     0.087 A 
ATOM      2  C   UNL d   1     -25.885  22.802  22.808  0.00  0.00     0.073 A 
ATOM      3  C   UNL d   1     -26.748  23.298  23.775  0.00  0.00     0.105 A 
ATOM      4  C   UNL d   1     -26.355  24.363  24.587  0.00  0.00     0.146 A 
ATOM      5  F   UNL d   1     -27.198  24.837  25.530  0.00  0.00    -0.204 F 
ATOM      6  C   UNL d   1     -25.113  24.934  24.426  0.00  0.00     0.064 A 
ATOM      7  C   UNL d   1     -24.239  24.444  23.449  0.00  0.00     0.068 A 
ENDROOT
BRANCH   3   8
ATOM      8  N   UNL d   1     -28.011  22.726  23.940  0.00  0.00    -0.177 N 
ATOM      9  C   UNL d   1     -28.367  21.840  24.899  0.00  0.00     0.351 A 
ATOM     10  N   UNL d   1     -29.653  21.546  24.716  0.00  0.00    -0.278 N 
ATOM     11  O   UNL d   1     -27.644  21.396  25.773  0.00  0.00    -0.244 OA
ATOM     12  C   UNL d   1     -30.112  22.254  23.602  0.00  0.00     0.154 A 
ATOM     13  C   UNL d   1     -30.557  20.657  25.457  0.00  0.00     0.171 C 
ATOM     14  N   UNL d   1     -29.139  22.961  23.136  0.00  0.00    -0.144 NA
ATOM     15  C   UNL d   1     -31.512  22.110  23.155  0.00  0.00     0.051 C 
ATOM     16  C   UNL d   1     -32.385  21.641  24.056  0.00  0.00     0.010 C 
ATOM     17  C   UNL d   1     -31.942  21.325  25.462  0.00  0.00     0.159 C 
BRANCH  17  18
ATOM     18  O   UNL d   1     -31.878  22.535  26.219  0.00  0.00    -0.390 OA
ATOM     19  H   UNL d   1     -32.660  23.096  26.130  0.00  0.00     0.210 HD
ENDBRANCH  17  18
ENDBRANCH   3   8
BRANCH   1  20
ATOM     20  O   UNL d   1     -23.791  22.889  21.688  0.00  0.00    -0.336 OA
BRANCH  20  21
ATOM     21  C   UNL d   1     -23.925  23.425  20.370  0.00  0.00     0.232 C 
ATOM     22  C   UNL d   1     -22.554  23.872  19.860  0.00  0.00     0.049 C 
BRANCH  21  23
ATOM     23  C   UNL d   1     -24.491  22.351  19.439  0.00  0.00     0.413 C 
ATOM     24  F   UNL d   1     -23.651  21.231  19.453  0.00  0.00    -0.168 F 
ATOM     25  F   UNL d   1     -25.768  21.981  19.875  0.00  0.00    -0.168 F 
ATOM     26  F   UNL d   1     -24.571  22.857  18.137  0.00  0.00    -0.168 F 
ENDBRANCH  21  23
ENDBRANCH  20  21
ENDBRANCH   1  20
BRANCH   7  27
ATOM     27  C   UNL d   1     -22.910  25.054  23.274  0.00  0.00     0.259 C 
ATOM     28  O   UNL d   1     -22.794  26.090  22.647  0.00  0.00    -0.267 OA
ATOM     29  N   UNL d   1     -21.823  24.463  23.807  0.00  0.00    -0.318 N 
ATOM     30  H   UNL d   1     -21.902  23.598  24.238  0.00  0.00     0.169 HD
BRANCH  29  31
ATOM     31  C   UNL d   1     -20.576  25.100  23.739  0.00  0.00     0.113 A 
ATOM     32  C   UNL d   1     -20.228  26.053  24.689  0.00  0.00     0.146 A 
ATOM     33  C   UNL d   1     -18.996  26.679  24.619  0.00  0.00     0.045 A 
ATOM     34  F   UNL d   1     -21.091  26.368  25.679  0.00  0.00    -0.204 F 
ATOM     35  C   UNL d   1     -18.112  26.356  23.605  0.00  0.00     0.006 A 
ATOM     36  C   UNL d   1     -18.454  25.408  22.659  0.00  0.00     0.045 A 
ATOM     37  C   UNL d   1     -19.682  24.775  22.726  0.00  0.00     0.146 A 
ATOM     38  F   UNL d   1     -20.014  23.845  21.804  0.00  0.00    -0.204 F 
ENDBRANCH  29  31
ENDBRANCH   7  27
TORSDOF 7
ENDMDL
