MODEL 1
REMARK VINA RESULT:     -10.9      0.000      0.000
REMARK  7 active torsions:
REMARK  status: ('A' for Active; 'I' for Inactive)
REMARK    1  A    between atoms: C_2  and  C_3 
REMARK    2  A    between atoms: C_3  and  O_5 
REMARK    3  A    between atoms: O_5  and  C_6 
REMARK    4  A    between atoms: C_8  and  N_9 
REMARK       I    between atoms: N_9  and  C_10 
REMARK    5  A    between atoms: C_10  and  C_12 
REMARK    6  A    between atoms: C_15  and  O_17 
REMARK    7  A    between atoms: C_21  and  C_22 
ROOT
ATOM      1  C   UNL d   1     -32.162  20.536  25.086  0.00  0.00     0.141 C 
ATOM      2  C   UNL d   1     -32.039  19.358  25.892  0.00  0.00     0.107 C 
ATOM      3  N   UNL d   1     -31.941  18.424  26.530  0.00  0.00    -0.191 NA
ATOM      4  C   UNL d   1     -33.377  20.895  24.585  0.00  0.00     0.065 C 
ATOM      5  C   UNL d   1     -34.592  20.053  24.879  0.00  0.00     0.077 C 
ENDROOT
BRANCH   1   6
ATOM      6  C   UNL d   1     -30.976  21.357  24.800  0.00  0.00     0.269 C 
ATOM      7  N   UNL d   1     -29.780  21.018  25.319  0.00  0.00    -0.320 N 
ATOM      8  H   UNL d   1     -29.710  20.265  25.926  0.00  0.00     0.169 HD
ATOM      9  O   UNL d   1     -31.076  22.343  24.094  0.00  0.00    -0.266 OA
BRANCH   7  10
ATOM     10  C   UNL d   1     -28.638  21.753  24.984  0.00  0.00     0.076 A 
ATOM     11  C   UNL d   1     -28.193  21.779  23.670  0.00  0.00     0.070 A 
ATOM     12  C   UNL d   1     -27.066  22.509  23.334  0.00  0.00     0.082 A 
ATOM     13  C   UNL d   1     -26.371  23.211  24.324  0.00  0.00     0.011 A 
ATOM     14  C   UNL d   1     -26.823  23.181  25.643  0.00  0.00     0.059 A 
ATOM     15  C   UNL d   1     -27.950  22.456  25.969  0.00  0.00     0.144 A 
ATOM     16  F   UNL d   1     -28.387  22.427  27.247  0.00  0.00    -0.204 F 
BRANCH  12  17
ATOM     17  O   UNL d   1     -26.633  22.541  22.046  0.00  0.00    -0.345 OA
BRANCH  17  18
ATOM     18  C   UNL d   1     -26.340  21.284  21.430  0.00  0.00     0.124 C 
ATOM     19  C   UNL d   1     -27.316  21.042  20.278  0.00  0.00     0.040 C 
BRANCH  18  20
ATOM     20  C   UNL d   1     -24.907  21.304  20.891  0.00  0.00     0.027 C 
ATOM     21  C   UNL d   1     -24.760  22.439  19.876  0.00  0.00     0.007 C 
ENDBRANCH  18  20
ENDBRANCH  17  18
ENDBRANCH  12  17
BRANCH  13  22
ATOM     22  C   UNL d   1     -25.160  23.991  23.971  0.00  0.00    -0.022 A 
ATOM     23  C   UNL d   1     -23.977  23.332  23.692  0.00  0.00     0.024 A 
ATOM     24  C   UNL d   1     -22.835  24.075  23.359  0.00  0.00    -0.025 A 
ATOM     25  C   UNL d   1     -22.913  25.491  23.311  0.00  0.00    -0.026 A 
ATOM     26  C   UNL d   1     -21.614  23.441  23.068  0.00  0.00     0.012 A 
ATOM     27  C   UNL d   1     -24.131  26.131  23.601  0.00  0.00     0.013 A 
ATOM     28  C   UNL d   1     -21.766  26.231  22.976  0.00  0.00     0.012 A 
ATOM     29  C   UNL d   1     -25.225  25.393  23.921  0.00  0.00     0.013 A 
ATOM     30  C   UNL d   1     -20.601  25.583  22.701  0.00  0.00     0.001 A 
ATOM     31  C   UNL d   1     -20.526  24.192  22.747  0.00  0.00     0.001 A 
ENDBRANCH  13  22
ENDBRANCH   7  10
ENDBRANCH   1   6
BRANCH   4  32
ATOM     32  O   UNL d   1     -33.493  22.000  23.829  0.00  0.00    -0.364 OA
ATOM     33  H   UNL d   1     -34.327  22.486  23.885  0.00  0.00     0.217 HD
ENDBRANCH   4  32
TORSDOF 7
ENDMDL
