MODEL 1
REMARK VINA RESULT:     -10.8      0.000      0.000
REMARK  6 active torsions:
REMARK  status: ('A' for Active; 'I' for Inactive)
REMARK    1  A    between atoms: C_7  and  N_8 
REMARK       I    between atoms: N_8  and  C_9 
REMARK    2  A    between atoms: C_9  and  C_11 
REMARK    3  A    between atoms: C_15  and  N_16 
REMARK    4  A    between atoms: C_27  and  O_28 
REMARK    5  A    between atoms: O_28  and  C_29 
REMARK    6  A    between atoms: C_29  and  C_31 
ROOT
ATOM      1  C   UNL d   1     -24.261  24.370  23.407  0.00  0.00     0.068 A 
ATOM      2  C   UNL d   1     -25.110  24.906  24.381  0.00  0.00     0.064 A 
ATOM      3  C   UNL d   1     -26.373  24.386  24.553  0.00  0.00     0.146 A 
ATOM      4  F   UNL d   1     -27.195  24.907  25.490  0.00  0.00    -0.204 F 
ATOM      5  C   UNL d   1     -26.809  23.326  23.756  0.00  0.00     0.104 A 
ATOM      6  C   UNL d   1     -25.972  22.789  22.788  0.00  0.00     0.073 A 
ATOM      7  C   UNL d   1     -24.701  23.306  22.608  0.00  0.00     0.087 A 
ENDROOT
BRANCH   1   8
ATOM      8  C   UNL d   1     -22.908  24.924  23.221  0.00  0.00     0.259 C 
ATOM      9  N   UNL d   1     -21.839  24.271  23.717  0.00  0.00    -0.321 N 
ATOM     10  H   UNL d   1     -21.953  23.407  24.144  0.00  0.00     0.169 HD
ATOM     11  O   UNL d   1     -22.757  25.970  22.621  0.00  0.00    -0.267 OA
BRANCH   9  12
ATOM     12  C   UNL d   1     -20.564  24.838  23.615  0.00  0.00     0.058 A 
ATOM     13  C   UNL d   1     -20.123  25.760  24.563  0.00  0.00    -0.032 A 
ATOM     14  C   UNL d   1     -21.007  26.166  25.714  0.00  0.00     0.050 C 
ATOM     15  C   UNL d   1     -18.853  26.294  24.419  0.00  0.00     0.028 A 
ATOM     16  C   UNL d   1     -18.071  25.898  23.350  0.00  0.00     0.117 A 
ATOM     17  N   UNL d   1     -18.518  25.023  22.471  0.00  0.00    -0.271 NA
ATOM     18  C   UNL d   1     -19.717  24.487  22.572  0.00  0.00     0.146 A 
ENDBRANCH   9  12
ENDBRANCH   1   8
BRANCH   7  19
ATOM     19  O   UNL d   1     -23.882  22.781  21.662  0.00  0.00    -0.336 OA
BRANCH  19  20
ATOM     20  C   UNL d   1     -23.941  23.361  20.357  0.00  0.00     0.232 C 
ATOM     21  C   UNL d   1     -22.534  23.772  19.916  0.00  0.00     0.049 C 
BRANCH  20  22
ATOM     22  C   UNL d   1     -24.508  22.339  19.369  0.00  0.00     0.413 C 
ATOM     23  F   UNL d   1     -23.670  21.221  19.324  0.00  0.00    -0.168 F 
ATOM     24  F   UNL d   1     -25.786  21.949  19.785  0.00  0.00    -0.168 F 
ATOM     25  F   UNL d   1     -24.587  22.915  18.097  0.00  0.00    -0.168 F 
ENDBRANCH  20  22
ENDBRANCH  19  20
ENDBRANCH   7  19
BRANCH   5  26
ATOM     26  N   UNL d   1     -28.092  22.803  23.936  0.00  0.00    -0.178 N 
ATOM     27  C   UNL d   1     -28.503  22.028  24.966  0.00  0.00     0.351 A 
ATOM     28  N   UNL d   1     -29.803  21.769  24.775  0.00  0.00    -0.280 N 
ATOM     29  O   UNL d   1     -27.818  21.638  25.894  0.00  0.00    -0.244 OA
ATOM     30  C   UNL d   1     -30.196  22.358  23.587  0.00  0.00     0.155 A 
ATOM     31  C   UNL d   1     -30.725  21.017  25.634  0.00  0.00     0.161 C 
ATOM     32  N   UNL d   1     -29.190  22.981  23.081  0.00  0.00    -0.147 NA
ATOM     33  C   UNL d   1     -31.598  22.232  23.038  0.00  0.00     0.248 C 
ATOM     34  O   UNL d   1     -32.443  21.783  24.107  0.00  0.00    -0.382 OA
ATOM     35  C   UNL d   1     -31.947  20.628  24.790  0.00  0.00     0.188 C 
ENDBRANCH   5  26
TORSDOF 6
ENDMDL
