MODEL 1
REMARK VINA RESULT:      -9.6      0.000      0.000
REMARK  7 active torsions:
REMARK  status: ('A' for Active; 'I' for Inactive)
REMARK    1  A    between atoms: C_2  and  C_3 
REMARK    2  A    between atoms: C_3  and  O_5 
REMARK    3  A    between atoms: O_5  and  C_6 
REMARK    4  A    between atoms: C_8  and  N_9 
REMARK       I    between atoms: N_9  and  C_10 
REMARK    5  A    between atoms: C_10  and  C_12 
REMARK    6  A    between atoms: C_15  and  O_17 
REMARK    7  A    between atoms: C_21  and  C_22 
ROOT
ATOM      1  C   UNL d   1     -31.452  21.971  22.596  0.00  0.00     0.141 C 
ATOM      2  C   UNL d   1     -32.338  22.005  21.471  0.00  0.00     0.107 C 
ATOM      3  N   UNL d   1     -33.040  22.033  20.579  0.00  0.00    -0.191 NA
ATOM      4  C   UNL d   1     -31.903  21.534  23.805  0.00  0.00     0.065 C 
ATOM      5  C   UNL d   1     -33.334  21.088  23.960  0.00  0.00     0.077 C 
ENDROOT
BRANCH   1   6
ATOM      6  C   UNL d   1     -30.057  22.406  22.447  0.00  0.00     0.269 C 
ATOM      7  N   UNL d   1     -29.062  21.680  22.996  0.00  0.00    -0.320 N 
ATOM      8  H   UNL d   1     -29.270  20.906  23.541  0.00  0.00     0.169 HD
ATOM      9  O   UNL d   1     -29.798  23.421  21.828  0.00  0.00    -0.266 OA
BRANCH   7  10
ATOM     10  C   UNL d   1     -27.729  22.045  22.779  0.00  0.00     0.076 A 
ATOM     11  C   UNL d   1     -27.091  22.899  23.667  0.00  0.00     0.070 A 
ATOM     12  C   UNL d   1     -25.771  23.260  23.455  0.00  0.00     0.082 A 
ATOM     13  C   UNL d   1     -25.084  22.763  22.344  0.00  0.00     0.011 A 
ATOM     14  C   UNL d   1     -25.731  21.910  21.451  0.00  0.00     0.059 A 
ATOM     15  C   UNL d   1     -27.044  21.549  21.672  0.00  0.00     0.144 A 
ATOM     16  F   UNL d   1     -27.670  20.718  20.810  0.00  0.00    -0.204 F 
BRANCH  12  17
ATOM     17  O   UNL d   1     -25.145  24.097  24.324  0.00  0.00    -0.345 OA
BRANCH  17  18
ATOM     18  C   UNL d   1     -25.289  25.499  24.090  0.00  0.00     0.124 C 
ATOM     19  C   UNL d   1     -26.278  26.086  25.100  0.00  0.00     0.040 C 
BRANCH  18  20
ATOM     20  C   UNL d   1     -23.930  26.184  24.251  0.00  0.00     0.027 C 
ATOM     21  C   UNL d   1     -23.491  26.767  22.906  0.00  0.00     0.007 C 
ENDBRANCH  18  20
ENDBRANCH  17  18
ENDBRANCH  12  17
BRANCH  13  22
ATOM     22  C   UNL d   1     -23.670  23.147  22.111  0.00  0.00    -0.023 A 
ATOM     23  C   UNL d   1     -23.297  23.742  20.908  0.00  0.00     0.014 A 
ATOM     24  C   UNL d   1     -21.980  24.098  20.696  0.00  0.00     0.024 A 
ATOM     25  C   UNL d   1     -21.031  23.865  21.676  0.00  0.00     0.034 A 
ATOM     26  C   UNL d   1     -21.398  23.273  22.874  0.00  0.00     0.024 A 
ATOM     27 CL   UNL d   1     -19.377  24.315  21.404  0.00  0.00    -0.084 Cl
ATOM     28  C   UNL d   1     -22.711  22.914  23.095  0.00  0.00     0.014 A 
ENDBRANCH  13  22
ENDBRANCH   7  10
ENDBRANCH   1   6
BRANCH   4  29
ATOM     29  O   UNL d   1     -31.072  21.502  24.862  0.00  0.00    -0.364 OA
ATOM     30  H   UNL d   1     -31.439  21.185  25.699  0.00  0.00     0.217 HD
ENDBRANCH   4  29
TORSDOF 7
ENDMDL
