MODEL 1
REMARK VINA RESULT:     -10.7      0.000      0.000
REMARK  7 active torsions:
REMARK  status: ('A' for Active; 'I' for Inactive)
REMARK    1  A    between atoms: O_2  and  C_3 
REMARK    2  A    between atoms: C_7  and  C_8 
REMARK    3  A    between atoms: C_11  and  N_12 
REMARK    4  A    between atoms: N_12  and  C_13 
REMARK    5  A    between atoms: C_19  and  C_20 
REMARK    6  A    between atoms: C_20  and  O_22 
REMARK    7  A    between atoms: C_24  and  C_25 
ROOT
ATOM      1  C   UNL d   1     -24.400  23.531  22.531  0.00  0.00     0.082 A 
ATOM      2  N   UNL d   1     -24.975  22.366  22.260  0.00  0.00    -0.257 NA
ATOM      3  C   UNL d   1     -26.112  22.009  22.818  0.00  0.00     0.146 A 
ATOM      4  C   UNL d   1     -26.755  22.848  23.722  0.00  0.00     0.051 A 
ATOM      5  C   UNL d   1     -26.180  24.078  24.038  0.00  0.00     0.049 A 
ATOM      6  C   UNL d   1     -24.988  24.422  23.427  0.00  0.00     0.079 A 
ENDROOT
BRANCH   4   7
ATOM      7  N   UNL d   1     -27.961  22.460  24.311  0.00  0.00    -0.354 N 
ATOM      8  H   UNL d   1     -27.999  22.273  25.261  0.00  0.00     0.166 HD
BRANCH   7   9
ATOM      9  C   UNL d   1     -29.107  22.343  23.535  0.00  0.00     0.049 A 
ATOM     10  C   UNL d   1     -30.307  21.897  24.110  0.00  0.00     0.064 A 
ATOM     11  C   UNL d   1     -31.453  21.783  23.318  0.00  0.00     0.027 A 
ATOM     12  C   UNL d   1     -31.398  22.110  21.980  0.00  0.00    -0.061 A 
ATOM     13  C   UNL d   1     -30.211  22.550  21.415  0.00  0.00     0.009 A 
ATOM     14  C   UNL d   1     -32.635  21.987  21.127  0.00  0.00     0.048 C 
ATOM     15  C   UNL d   1     -29.074  22.673  22.184  0.00  0.00     0.031 A 
BRANCH  10  16
ATOM     16  C   UNL d   1     -30.359  21.549  25.541  0.00  0.00     0.178 C 
ATOM     17  O   UNL d   1     -31.290  21.924  26.225  0.00  0.00    -0.646 OA
BRANCH  16  18
ATOM     18  O   UNL d   1     -29.371  20.813  26.091  0.00  0.00    -0.773 OA
ATOM     19  H   UNL d   1     -29.438  19.853  26.000  0.00  0.00     0.167 HD
ENDBRANCH  16  18
ENDBRANCH  10  16
ENDBRANCH   7   9
ENDBRANCH   4   7
BRANCH   6  20
ATOM     20  C   UNL d   1     -24.329  25.743  23.732  0.00  0.00     0.419 C 
ATOM     21  F   UNL d   1     -24.037  26.406  22.535  0.00  0.00    -0.166 F 
ATOM     22  F   UNL d   1     -23.145  25.520  24.442  0.00  0.00    -0.166 F 
ATOM     23  F   UNL d   1     -25.194  26.528  24.502  0.00  0.00    -0.166 F 
ENDBRANCH   6  20
BRANCH   1  24
ATOM     24  C   UNL d   1     -23.119  23.888  21.877  0.00  0.00    -0.004 A 
ATOM     25  C   UNL d   1     -23.106  24.327  20.555  0.00  0.00     0.014 A 
ATOM     26  C   UNL d   1     -21.911  24.664  19.951  0.00  0.00     0.004 A 
ATOM     27  C   UNL d   1     -20.724  24.556  20.650  0.00  0.00     0.037 A 
ATOM     28  C   UNL d   1     -20.726  24.113  21.966  0.00  0.00     0.069 A 
ATOM     29  C   UNL d   1     -21.921  23.778  22.582  0.00  0.00     0.050 A 
BRANCH  28  30
ATOM     30  O   UNL d   1     -19.557  24.009  22.650  0.00  0.00    -0.356 OA
ATOM     31  C   UNL d   1     -19.396  24.852  23.792  0.00  0.00     0.210 C 
ENDBRANCH  28  30
ENDBRANCH   1  24
TORSDOF 7
ENDMDL
