MODEL 1
REMARK VINA RESULT:     -10.0      0.000      0.000
REMARK  9 active torsions:
REMARK  status: ('A' for Active; 'I' for Inactive)
REMARK    1  A    between atoms: C_2  and  N_3 
REMARK    2  A    between atoms: C_4  and  S_5 
REMARK    3  A    between atoms: S_5  and  N_7 
REMARK    4  A    between atoms: N_10  and  C_11 
REMARK    5  A    between atoms: C_13  and  O_14 
REMARK    6  A    between atoms: O_14  and  C_15 
REMARK    7  A    between atoms: C_15  and  C_17 
REMARK    8  A    between atoms: C_21  and  C_22 
REMARK       I    between atoms: C_22  and  N_24 
REMARK    9  A    between atoms: N_24  and  C_25 
ROOT
ATOM      1  C   UNL d   1     -26.959  23.283  23.673  0.00  0.00     0.105 A 
ATOM      2  C   UNL d   1     -26.083  22.801  22.710  0.00  0.00     0.073 A 
ATOM      3  C   UNL d   1     -24.805  23.324  22.611  0.00  0.00     0.087 A 
ATOM      4  C   UNL d   1     -24.396  24.336  23.491  0.00  0.00     0.068 A 
ATOM      5  C   UNL d   1     -25.283  24.813  24.461  0.00  0.00     0.064 A 
ATOM      6  C   UNL d   1     -26.553  24.289  24.549  0.00  0.00     0.146 A 
ATOM      7  F   UNL d   1     -27.409  24.751  25.486  0.00  0.00    -0.204 F 
ENDROOT
BRANCH   1   8
ATOM      8  N   UNL d   1     -28.249  22.756  23.767  0.00  0.00    -0.177 N 
ATOM      9  N   UNL d   1     -28.775  22.035  24.847  0.00  0.00    -0.134 NA
ATOM     10  C   UNL d   1     -29.997  21.716  24.562  0.00  0.00     0.230 A 
ATOM     11  N   UNL d   1     -30.303  22.206  23.316  0.00  0.00    -0.273 N 
ATOM     12  C   UNL d   1     -29.219  22.845  22.833  0.00  0.00     0.352 A 
ATOM     13  O   UNL d   1     -29.131  23.402  21.753  0.00  0.00    -0.244 OA
BRANCH  10  14
ATOM     14  S   UNL d   1     -31.090  20.810  25.604  0.00  0.00     0.102 S 
ATOM     15  C   UNL d   1     -32.331  19.997  24.561  0.00  0.00     0.147 C 
ATOM     16  O   UNL d   1     -31.623  21.701  26.575  0.00  0.00    -0.241 OA
BRANCH  14  17
ATOM     17  N   UNL d   1     -30.309  19.754  26.316  0.00  0.00    -0.246 NA
ATOM     18  H   UNL d   1     -30.764  19.125  26.898  0.00  0.00     0.197 HD
ENDBRANCH  14  17
ENDBRANCH  10  14
BRANCH  11  19
ATOM     19  C   UNL d   1     -31.589  22.059  22.629  0.00  0.00     0.132 C 
ATOM     20  C   UNL d   1     -31.360  22.029  21.117  0.00  0.00     0.027 C 
ENDBRANCH  11  19
ENDBRANCH   1   8
BRANCH   3  21
ATOM     21  O   UNL d   1     -23.951  22.856  21.666  0.00  0.00    -0.336 OA
BRANCH  21  22
ATOM     22  C   UNL d   1     -24.062  23.415  20.355  0.00  0.00     0.232 C 
ATOM     23  C   UNL d   1     -22.689  23.907  19.893  0.00  0.00     0.049 C 
BRANCH  22  24
ATOM     24  C   UNL d   1     -24.571  22.345  19.386  0.00  0.00     0.413 C 
ATOM     25  F   UNL d   1     -23.701  21.249  19.403  0.00  0.00    -0.168 F 
ATOM     26  F   UNL d   1     -25.849  21.932  19.779  0.00  0.00    -0.168 F 
ATOM     27  F   UNL d   1     -24.629  22.876  18.094  0.00  0.00    -0.168 F 
ENDBRANCH  22  24
ENDBRANCH  21  22
ENDBRANCH   3  21
BRANCH   4  28
ATOM     28  C   UNL d   1     -23.036  24.893  23.394  0.00  0.00     0.259 C 
ATOM     29  O   UNL d   1     -22.849  25.946  22.817  0.00  0.00    -0.267 OA
ATOM     30  N   UNL d   1     -21.998  24.235  23.947  0.00  0.00    -0.318 N 
ATOM     31  H   UNL d   1     -22.152  23.420  24.450  0.00  0.00     0.169 HD
BRANCH  30  32
ATOM     32  C   UNL d   1     -20.695  24.728  23.796  0.00  0.00     0.113 A 
ATOM     33  C   UNL d   1     -20.163  25.593  24.746  0.00  0.00     0.146 A 
ATOM     34  C   UNL d   1     -18.876  26.078  24.592  0.00  0.00     0.045 A 
ATOM     35  F   UNL d   1     -20.901  25.960  25.816  0.00  0.00    -0.204 F 
ATOM     36  C   UNL d   1     -18.120  25.704  23.497  0.00  0.00     0.006 A 
ATOM     37  C   UNL d   1     -18.646  24.844  22.551  0.00  0.00     0.045 A 
ATOM     38  C   UNL d   1     -19.930  24.350  22.700  0.00  0.00     0.146 A 
ATOM     39  F   UNL d   1     -20.440  23.504  21.777  0.00  0.00    -0.204 F 
ENDBRANCH  30  32
ENDBRANCH   4  28
TORSDOF 9
ENDMDL
