MODEL 1
REMARK VINA RESULT:     -10.1      0.000      0.000
REMARK  8 active torsions:
REMARK  status: ('A' for Active; 'I' for Inactive)
REMARK    1  A    between atoms: C_2  and  O_3 
REMARK    2  A    between atoms: C_2  and  C_32 
REMARK    3  A    between atoms: O_3  and  C_4 
REMARK    4  A    between atoms: C_6  and  N_7 
REMARK    5  A    between atoms: C_20  and  C_21 
REMARK       I    between atoms: C_21  and  N_23 
REMARK    6  A    between atoms: N_23  and  C_24 
REMARK    7  A    between atoms: C_28  and  C_29 
REMARK    8  A    between atoms: C_29  and  O_30 
ROOT
ATOM      1  C   UNL d   1     -24.729  23.332  22.648  0.00  0.00     0.087 A 
ATOM      2  C   UNL d   1     -25.992  22.791  22.818  0.00  0.00     0.073 A 
ATOM      3  C   UNL d   1     -26.847  23.312  23.780  0.00  0.00     0.104 A 
ATOM      4  C   UNL d   1     -26.433  24.374  24.586  0.00  0.00     0.146 A 
ATOM      5  F   UNL d   1     -27.269  24.872  25.525  0.00  0.00    -0.204 F 
ATOM      6  C   UNL d   1     -25.178  24.914  24.428  0.00  0.00     0.064 A 
ATOM      7  C   UNL d   1     -24.312  24.399  23.457  0.00  0.00     0.068 A 
ENDROOT
BRANCH   7   8
ATOM      8  C   UNL d   1     -22.967  24.974  23.286  0.00  0.00     0.259 C 
ATOM      9  O   UNL d   1     -22.827  26.024  22.688  0.00  0.00    -0.267 OA
ATOM     10  N   UNL d   1     -21.893  24.339  23.792  0.00  0.00    -0.323 N 
ATOM     11  H   UNL d   1     -22.010  23.534  24.321  0.00  0.00     0.169 HD
BRANCH  10  12
ATOM     12  C   UNL d   1     -20.609  24.838  23.555  0.00  0.00     0.035 A 
ATOM     13  C   UNL d   1     -20.021  25.708  24.463  0.00  0.00     0.038 A 
ATOM     14  C   UNL d   1     -18.752  26.199  24.225  0.00  0.00    -0.033 A 
ATOM     15  C   UNL d   1     -18.067  25.826  23.085  0.00  0.00     0.009 A 
ATOM     16  C   UNL d   1     -18.648  24.959  22.177  0.00  0.00     0.003 A 
ATOM     17  C   UNL d   1     -19.915  24.460  22.411  0.00  0.00     0.029 A 
BRANCH  14  18
ATOM     18  C   UNL d   1     -18.114  27.144  25.211  0.00  0.00     0.203 C 
BRANCH  18  19
ATOM     19  O   UNL d   1     -19.133  27.812  25.959  0.00  0.00    -0.396 OA
ATOM     20  H   UNL d   1     -19.583  28.514  25.472  0.00  0.00     0.209 HD
ENDBRANCH  18  19
ENDBRANCH  14  18
ENDBRANCH  10  12
ENDBRANCH   7   8
BRANCH   1  21
ATOM     21  O   UNL d   1     -23.895  22.827  21.704  0.00  0.00    -0.336 OA
BRANCH  21  22
ATOM     22  C   UNL d   1     -23.981  23.389  20.394  0.00  0.00     0.232 C 
ATOM     23  C   UNL d   1     -22.588  23.825  19.932  0.00  0.00     0.049 C 
BRANCH  22  24
ATOM     24  C   UNL d   1     -24.536  22.343  19.425  0.00  0.00     0.413 C 
ATOM     25  F   UNL d   1     -25.820  21.967  19.830  0.00  0.00    -0.168 F 
ATOM     26  F   UNL d   1     -24.593  22.884  18.136  0.00  0.00    -0.168 F 
ATOM     27  F   UNL d   1     -23.700  21.221  19.422  0.00  0.00    -0.168 F 
ENDBRANCH  22  24
ENDBRANCH  21  22
ENDBRANCH   1  21
BRANCH   3  28
ATOM     28  N   UNL d   1     -28.122  22.767  23.947  0.00  0.00    -0.178 N 
ATOM     29  C   UNL d   1     -28.533  21.990  24.973  0.00  0.00     0.351 A 
ATOM     30  N   UNL d   1     -29.829  21.706  24.765  0.00  0.00    -0.284 N 
ATOM     31  O   UNL d   1     -27.853  21.617  25.911  0.00  0.00    -0.244 OA
ATOM     32  C   UNL d   1     -30.215  22.281  23.572  0.00  0.00     0.131 A 
ATOM     33  C   UNL d   1     -30.725  20.938  25.637  0.00  0.00     0.135 C 
ATOM     34  N   UNL d   1     -29.212  22.923  23.077  0.00  0.00    -0.149 NA
ATOM     35  C   UNL d   1     -31.600  22.146  22.984  0.00  0.00     0.081 C 
ATOM     36  C   UNL d   1     -32.549  21.696  24.102  0.00  0.00     0.009 C 
ATOM     37  C   UNL d   1     -31.939  20.485  24.818  0.00  0.00     0.021 C 
ENDBRANCH   3  28
TORSDOF 8
ENDMDL
