MODEL 1
REMARK VINA RESULT:      -7.9      0.000      0.000
REMARK  2 active torsions:
REMARK  status: ('A' for Active; 'I' for Inactive)
REMARK    1  A    between atoms: C_6  and  N_7 
REMARK    2  A    between atoms: N_7  and  C_8 
ROOT
ATOM      1  C   UNL d   1     -22.232  24.738  20.256  0.00  0.00     0.074 C 
ATOM      2  C   UNL d   1     -23.313  23.692  20.177  0.00  0.00     0.075 A 
ATOM      3  N   UNL d   1     -23.890  23.268  19.087  0.00  0.00    -0.177 NA
ATOM      4  N   UNL d   1     -24.842  22.298  19.416  0.00  0.00    -0.261 N 
ATOM      5  H   UNL d   1     -25.409  21.825  18.788  0.00  0.00     0.191 HD
ATOM      6  C   UNL d   1     -24.837  22.132  20.755  0.00  0.00     0.145 A 
ATOM      7  C   UNL d   1     -23.883  23.004  21.274  0.00  0.00     0.115 A 
ATOM      8  C   UNL d   1     -23.542  23.170  22.654  0.00  0.00     0.105 C 
ATOM      9  N   UNL d   1     -23.271  23.302  23.749  0.00  0.00    -0.191 NA
ENDROOT
BRANCH   6  10
ATOM     10  N   UNL d   1     -25.633  21.263  21.478  0.00  0.00    -0.340 N 
ATOM     11  H   UNL d   1     -25.301  20.383  21.715  0.00  0.00     0.167 HD
BRANCH  10  12
ATOM     12  C   UNL d   1     -26.919  21.653  21.867  0.00  0.00     0.033 A 
ATOM     13  C   UNL d   1     -27.139  22.145  23.147  0.00  0.00     0.032 A 
ATOM     14  C   UNL d   1     -28.410  22.529  23.528  0.00  0.00     0.044 A 
ATOM     15  C   UNL d   1     -29.465  22.423  22.637  0.00  0.00     0.116 A 
ATOM     16  C   UNL d   1     -29.247  21.932  21.361  0.00  0.00     0.044 A 
ATOM     17  F   UNL d   1     -30.706  22.798  23.013  0.00  0.00    -0.206 F 
ATOM     18  C   UNL d   1     -27.979  21.542  20.975  0.00  0.00     0.032 A 
ENDBRANCH  10  12
ENDBRANCH   6  10
TORSDOF 2
ENDMDL
