MODEL 1
REMARK VINA RESULT:     -10.9      0.000      0.000
REMARK  6 active torsions:
REMARK  status: ('A' for Active; 'I' for Inactive)
REMARK    1  A    between atoms: C_2  and  O_3 
REMARK    2  A    between atoms: C_2  and  C_33 
REMARK    3  A    between atoms: O_3  and  C_4 
REMARK    4  A    between atoms: C_6  and  N_7 
REMARK    5  A    between atoms: C_20  and  C_21 
REMARK       I    between atoms: C_21  and  N_23 
REMARK    6  A    between atoms: N_23  and  C_24 
ROOT
ATOM      1  C   UNL d   1     -20.433  24.996  23.441  0.00  0.00     0.056 A 
ATOM      2  C   UNL d   1     -19.604  24.674  22.376  0.00  0.00     0.034 A 
ATOM      3  C   UNL d   1     -18.367  25.277  22.254  0.00  0.00     0.044 A 
ATOM      4  C   UNL d   1     -17.940  26.199  23.198  0.00  0.00     0.117 A 
ATOM      5  F   UNL d   1     -16.726  26.779  23.072  0.00  0.00    -0.206 F 
ATOM      6  C   UNL d   1     -18.750  26.526  24.267  0.00  0.00     0.067 A 
ATOM      7  C   UNL d   1     -20.005  25.928  24.399  0.00  0.00     0.074 A 
ATOM      8  C   UNL d   1     -20.851  26.263  25.505  0.00  0.00     0.102 C 
ATOM      9  N   UNL d   1     -21.521  26.528  26.383  0.00  0.00    -0.191 NA
ENDROOT
BRANCH   1  10
ATOM     10  N   UNL d   1     -21.683  24.392  23.562  0.00  0.00    -0.321 N 
ATOM     11  C   UNL d   1     -22.781  25.013  23.085  0.00  0.00     0.259 C 
ATOM     12  O   UNL d   1     -22.668  26.048  22.456  0.00  0.00    -0.267 OA
ATOM     13  H   UNL d   1     -21.764  23.525  23.991  0.00  0.00     0.169 HD
BRANCH  11  14
ATOM     14  C   UNL d   1     -24.114  24.438  23.325  0.00  0.00     0.068 A 
ATOM     15  C   UNL d   1     -24.550  23.336  22.575  0.00  0.00     0.087 A 
ATOM     16  C   UNL d   1     -25.806  22.800  22.805  0.00  0.00     0.073 A 
ATOM     17  C   UNL d   1     -26.631  23.353  23.775  0.00  0.00     0.104 A 
ATOM     18  C   UNL d   1     -26.201  24.452  24.518  0.00  0.00     0.146 A 
ATOM     19  F   UNL d   1     -27.011  24.989  25.457  0.00  0.00    -0.204 F 
ATOM     20  C   UNL d   1     -24.952  24.988  24.302  0.00  0.00     0.064 A 
BRANCH  15  21
ATOM     21  O   UNL d   1     -23.744  22.796  21.627  0.00  0.00    -0.336 OA
BRANCH  21  22
ATOM     22  C   UNL d   1     -23.819  23.357  20.315  0.00  0.00     0.232 C 
ATOM     23  C   UNL d   1     -22.412  23.716  19.832  0.00  0.00     0.049 C 
BRANCH  22  24
ATOM     24  C   UNL d   1     -24.440  22.337  19.358  0.00  0.00     0.413 C 
ATOM     25  F   UNL d   1     -23.606  21.217  19.267  0.00  0.00    -0.168 F 
ATOM     26  F   UNL d   1     -25.694  21.946  19.841  0.00  0.00    -0.168 F 
ATOM     27  F   UNL d   1     -24.587  22.913  18.092  0.00  0.00    -0.168 F 
ENDBRANCH  22  24
ENDBRANCH  21  22
ENDBRANCH  15  21
BRANCH  17  28
ATOM     28  N   UNL d   1     -27.897  22.809  24.004  0.00  0.00    -0.178 N 
ATOM     29  C   UNL d   1     -28.281  22.106  25.091  0.00  0.00     0.351 A 
ATOM     30  N   UNL d   1     -29.578  21.795  24.930  0.00  0.00    -0.284 N 
ATOM     31  O   UNL d   1     -27.581  21.808  26.042  0.00  0.00    -0.244 OA
ATOM     32  C   UNL d   1     -29.991  22.278  23.705  0.00  0.00     0.131 A 
ATOM     33  C   UNL d   1     -30.450  21.086  25.872  0.00  0.00     0.135 C 
ATOM     34  N   UNL d   1     -29.003  22.891  23.145  0.00  0.00    -0.149 NA
ATOM     35  C   UNL d   1     -31.385  22.088  23.154  0.00  0.00     0.081 C 
ATOM     36  C   UNL d   1     -32.308  21.711  24.321  0.00  0.00     0.009 C 
ATOM     37  C   UNL d   1     -31.673  20.563  25.111  0.00  0.00     0.021 C 
ENDBRANCH  17  28
ENDBRANCH  11  14
ENDBRANCH   1  10
TORSDOF 6
ENDMDL
