MODEL 1
REMARK VINA RESULT:     -11.2      0.000      0.000
REMARK  4 active torsions:
REMARK  status: ('A' for Active; 'I' for Inactive)
REMARK    1  A    between atoms: C_2  and  O_3 
REMARK    2  A    between atoms: C_2  and  C_4 
REMARK    3  A    between atoms: C_12  and  C_13 
REMARK    4  A    between atoms: C_16  and  C_17 
ROOT
ATOM      1  C   UNL d   1     -31.038  21.456  24.673  0.00  0.00     0.070 A 
ATOM      2  C   UNL d   1     -32.300  21.372  24.088  0.00  0.00     0.040 A 
ATOM      3  C   UNL d   1     -32.485  21.752  22.772  0.00  0.00     0.014 A 
ATOM      4 BR   UNL d   1     -34.206  21.630  21.996  0.00  0.00    -0.051 Br
ATOM      5  C   UNL d   1     -31.426  22.220  22.016  0.00  0.00     0.051 A 
ATOM      6  C   UNL d   1     -30.160  22.314  22.574  0.00  0.00     0.065 A 
ATOM      7  N   UNL d   1     -28.932  22.731  22.095  0.00  0.00    -0.338 N 
ATOM      8  H   UNL d   1     -28.742  23.057  21.201  0.00  0.00     0.167 HD
ATOM      9  C   UNL d   1     -28.036  22.596  23.120  0.00  0.00     0.139 A 
ATOM     10  N   UNL d   1     -28.645  22.121  24.181  0.00  0.00    -0.227 NA
ATOM     11  C   UNL d   1     -29.949  21.933  23.911  0.00  0.00     0.102 A 
ENDROOT
BRANCH   9  12
ATOM     12  C   UNL d   1     -26.599  22.931  23.042  0.00  0.00     0.010 A 
ATOM     13  C   UNL d   1     -25.748  22.175  22.232  0.00  0.00     0.016 A 
ATOM     14  C   UNL d   1     -24.410  22.491  22.156  0.00  0.00     0.013 A 
ATOM     15  C   UNL d   1     -23.903  23.559  22.896  0.00  0.00    -0.026 A 
ATOM     16  C   UNL d   1     -24.751  24.315  23.705  0.00  0.00     0.013 A 
ATOM     17  C   UNL d   1     -26.090  24.003  23.779  0.00  0.00     0.016 A 
BRANCH  15  18
ATOM     18  C   UNL d   1     -22.461  23.895  22.817  0.00  0.00    -0.026 A 
ATOM     19  C   UNL d   1     -21.838  24.021  21.576  0.00  0.00     0.012 A 
ATOM     20  C   UNL d   1     -20.496  24.339  21.508  0.00  0.00     0.001 A 
ATOM     21  C   UNL d   1     -19.767  24.521  22.669  0.00  0.00     0.000 A 
ATOM     22  C   UNL d   1     -20.379  24.398  23.904  0.00  0.00     0.001 A 
ATOM     23  C   UNL d   1     -21.722  24.086  23.983  0.00  0.00     0.012 A 
ENDBRANCH  15  18
ENDBRANCH   9  12
BRANCH   1  24
ATOM     24  C   UNL d   1     -30.842  21.051  26.076  0.00  0.00     0.178 C 
ATOM     25  O   UNL d   1     -31.321  20.009  26.479  0.00  0.00    -0.646 OA
BRANCH  24  26
ATOM     26  O   UNL d   1     -30.131  21.834  26.911  0.00  0.00    -0.773 OA
ATOM     27  H   UNL d   1     -29.516  22.461  26.507  0.00  0.00     0.167 HD
ENDBRANCH  24  26
ENDBRANCH   1  24
TORSDOF 4
ENDMDL
