MODEL 1
REMARK VINA RESULT:     -12.1      0.000      0.000
REMARK  5 active torsions:
REMARK  status: ('A' for Active; 'I' for Inactive)
REMARK    1  A    between atoms: C_3  and  C_4 
REMARK    2  A    between atoms: C_7  and  C_8 
REMARK    3  A    between atoms: C_25  and  C_26 
REMARK    4  A    between atoms: C_26  and  O_27 
REMARK    5  A    between atoms: C_26  and  C_28 
ROOT
ATOM      1  C   UNL d   1     -28.049  21.994  25.623  0.00  0.00     0.051 C 
ATOM      2  C   UNL d   1     -28.991  22.038  24.448  0.00  0.00    -0.022 A 
ATOM      3  C   UNL d   1     -28.509  22.372  23.171  0.00  0.00     0.074 A 
ATOM      4  N   UNL d   1     -29.308  22.413  22.122  0.00  0.00    -0.247 NA
ATOM      5  C   UNL d   1     -30.612  22.142  22.232  0.00  0.00     0.068 A 
ATOM      6  C   UNL d   1     -31.456  22.187  21.109  0.00  0.00     0.035 A 
ATOM      7  C   UNL d   1     -32.781  21.908  21.247  0.00  0.00     0.044 A 
ATOM      8  C   UNL d   1     -33.319  21.574  22.491  0.00  0.00     0.117 A 
ATOM      9  F   UNL d   1     -34.637  21.300  22.596  0.00  0.00    -0.206 F 
ATOM     10  C   UNL d   1     -32.529  21.521  23.602  0.00  0.00     0.056 A 
ATOM     11  C   UNL d   1     -31.160  21.804  23.495  0.00  0.00     0.005 A 
ATOM     12  C   UNL d   1     -30.313  21.758  24.621  0.00  0.00    -0.000 A 
ENDROOT
BRANCH   3  13
ATOM     13  C   UNL d   1     -27.070  22.680  22.998  0.00  0.00    -0.007 A 
ATOM     14  C   UNL d   1     -26.499  23.752  23.684  0.00  0.00     0.014 A 
ATOM     15  C   UNL d   1     -25.160  24.035  23.527  0.00  0.00     0.013 A 
ATOM     16  C   UNL d   1     -24.378  23.256  22.675  0.00  0.00    -0.023 A 
ATOM     17  C   UNL d   1     -24.949  22.184  21.988  0.00  0.00     0.013 A 
ATOM     18  C   UNL d   1     -26.286  21.898  22.149  0.00  0.00     0.014 A 
BRANCH  16  19
ATOM     19  C   UNL d   1     -22.938  23.565  22.502  0.00  0.00     0.013 A 
ATOM     20  C   UNL d   1     -22.479  24.125  21.308  0.00  0.00     0.127 A 
ATOM     21  C   UNL d   1     -21.134  24.405  21.154  0.00  0.00     0.043 A 
ATOM     22  F   UNL d   1     -23.347  24.388  20.306  0.00  0.00    -0.205 F 
ATOM     23  C   UNL d   1     -20.247  24.141  22.181  0.00  0.00     0.003 A 
ATOM     24  C   UNL d   1     -20.697  23.585  23.365  0.00  0.00     0.001 A 
ATOM     25  C   UNL d   1     -22.037  23.296  23.531  0.00  0.00     0.015 A 
ENDBRANCH  16  19
ENDBRANCH   3  13
BRANCH  12  26
ATOM     26  C   UNL d   1     -30.856  21.403  25.981  0.00  0.00     0.260 C 
BRANCH  26  27
ATOM     27  O   UNL d   1     -31.942  22.273  26.304  0.00  0.00    -0.382 OA
ATOM     28  H   UNL d   1     -32.268  22.176  27.209  0.00  0.00     0.210 HD
ENDBRANCH  26  27
BRANCH  26  29
ATOM     29  C   UNL d   1     -31.349  19.955  25.972  0.00  0.00     0.417 C 
ATOM     30  F   UNL d   1     -32.744  19.936  26.085  0.00  0.00    -0.168 F 
ATOM     31  F   UNL d   1     -30.971  19.340  24.774  0.00  0.00    -0.168 F 
ATOM     32  F   UNL d   1     -30.785  19.263  27.050  0.00  0.00    -0.168 F 
ENDBRANCH  26  29
ENDBRANCH  12  26
TORSDOF 5
ENDMDL
