MODEL 1
REMARK VINA RESULT:     -11.2      0.000      0.000
REMARK  6 active torsions:
REMARK  status: ('A' for Active; 'I' for Inactive)
REMARK    1  A    between atoms: C_4  and  N_5 
REMARK       I    between atoms: N_5  and  C_6 
REMARK    2  A    between atoms: C_6  and  C_8 
REMARK    3  A    between atoms: C_9  and  O_10 
REMARK    4  A    between atoms: C_18  and  C_19 
REMARK    5  A    between atoms: C_23  and  O_24 
REMARK    6  A    between atoms: O_24  and  C_25 
ROOT
ATOM      1  C   UNL d   1     -27.404  22.283  27.147  0.00  0.00     0.051 C 
ATOM      2  C   UNL d   1     -27.635  22.303  25.658  0.00  0.00    -0.026 A 
ATOM      3  C   UNL d   1     -26.675  22.832  24.818  0.00  0.00     0.039 A 
ATOM      4  C   UNL d   1     -26.888  22.850  23.446  0.00  0.00     0.042 A 
ATOM      5  C   UNL d   1     -28.066  22.337  22.919  0.00  0.00    -0.025 A 
ATOM      6  C   UNL d   1     -29.027  21.813  23.761  0.00  0.00     0.047 A 
ATOM      7  C   UNL d   1     -28.812  21.790  25.132  0.00  0.00     0.082 A 
ENDROOT
BRANCH   4   8
ATOM      8  N   UNL d   1     -25.914  23.386  22.593  0.00  0.00    -0.322 N 
ATOM      9  C   UNL d   1     -24.906  22.609  22.150  0.00  0.00     0.263 C 
ATOM     10  O   UNL d   1     -24.876  21.427  22.437  0.00  0.00    -0.267 OA
ATOM     11  H   UNL d   1     -25.966  24.316  22.322  0.00  0.00     0.169 HD
BRANCH   9  12
ATOM     12  C   UNL d   1     -23.847  23.188  21.323  0.00  0.00     0.115 A 
ATOM     13  C   UNL d   1     -22.718  23.899  21.778  0.00  0.00     0.078 A 
ATOM     14  N   UNL d   1     -21.998  24.255  20.674  0.00  0.00    -0.242 N 
ATOM     15  C   UNL d   1     -22.271  24.256  23.057  0.00  0.00     0.033 A 
ATOM     16  N   UNL d   1     -22.670  23.773  19.544  0.00  0.00    -0.141 NA
ATOM     17  C   UNL d   1     -20.841  24.960  20.811  0.00  0.00     0.119 A 
ATOM     18  C   UNL d   1     -23.757  23.139  19.916  0.00  0.00     0.200 A 
ATOM     19  C   UNL d   1     -20.390  25.315  22.036  0.00  0.00     0.019 A 
ATOM     20  C   UNL d   1     -21.110  24.963  23.184  0.00  0.00     0.004 A 
BRANCH  18  21
ATOM     21  O   UNL d   1     -24.647  22.539  19.085  0.00  0.00    -0.343 OA
ATOM     22  H   UNL d   1     -24.281  21.797  18.586  0.00  0.00     0.219 HD
ENDBRANCH  18  21
ENDBRANCH   9  12
ENDBRANCH   4   8
BRANCH   5  23
ATOM     23  C   UNL d   1     -28.298  22.357  21.431  0.00  0.00     0.013 C 
ATOM     24  C   UNL d   1     -29.792  22.526  21.149  0.00  0.00     0.015 C 
ATOM     25  C   UNL d   1     -27.810  21.041  20.821  0.00  0.00     0.015 C 
ENDBRANCH   5  23
BRANCH   7  26
ATOM     26  O   UNL d   1     -29.757  21.269  25.959  0.00  0.00    -0.310 OA
BRANCH  26  27
ATOM     27  C   UNL d   1     -30.980  20.998  25.438  0.00  0.00     0.078 A 
ATOM     28  C   UNL d   1     -31.648  19.819  25.759  0.00  0.00     0.056 A 
ATOM     29  C   UNL d   1     -32.890  19.581  25.208  0.00  0.00     0.119 A 
ATOM     30  N   UNL d   1     -33.445  20.454  24.389  0.00  0.00    -0.273 NA
ATOM     31  C   UNL d   1     -32.845  21.582  24.062  0.00  0.00     0.119 A 
ATOM     32  C   UNL d   1     -31.603  21.896  24.574  0.00  0.00     0.056 A 
ENDBRANCH  26  27
ENDBRANCH   7  26
TORSDOF 6
ENDMDL
