MODEL 1
REMARK VINA RESULT:      -9.8      0.000      0.000
REMARK  6 active torsions:
REMARK  status: ('A' for Active; 'I' for Inactive)
REMARK    1  A    between atoms: C_2  and  C_3 
REMARK    2  A    between atoms: C_3  and  O_4 
REMARK    3  A    between atoms: O_4  and  C_5 
REMARK    4  A    between atoms: C_8  and  C_9 
REMARK    5  A    between atoms: C_11  and  C_12 
REMARK    6  A    between atoms: C_12  and  O_14 
ROOT
ATOM      1  C   UNL d   1     -28.117  22.506  23.193  0.00  0.00     0.068 A 
ATOM      2  C   UNL d   1     -28.624  22.081  24.431  0.00  0.00     0.051 A 
ATOM      3  C   UNL d   1     -29.960  21.719  24.534  0.00  0.00     0.052 A 
ATOM      4  C   UNL d   1     -30.771  21.799  23.318  0.00  0.00     0.011 A 
ATOM      5  C   UNL d   1     -32.129  21.461  23.323  0.00  0.00     0.038 A 
ATOM      6  C   UNL d   1     -32.850  21.554  22.169  0.00  0.00     0.035 A 
ATOM      7 CL   UNL d   1     -34.534  21.128  22.174  0.00  0.00    -0.084 Cl
ATOM      8  C   UNL d   1     -32.253  21.988  20.986  0.00  0.00     0.026 A 
ATOM      9  C   UNL d   1     -30.936  22.330  20.950  0.00  0.00     0.034 A 
ATOM     10  C   UNL d   1     -30.161  22.246  22.120  0.00  0.00     0.069 A 
ATOM     11  N   UNL d   1     -28.867  22.574  22.114  0.00  0.00    -0.247 NA
ENDROOT
BRANCH   1  12
ATOM     12  C   UNL d   1     -26.689  22.889  23.097  0.00  0.00    -0.007 A 
ATOM     13  C   UNL d   1     -25.832  22.186  22.252  0.00  0.00     0.016 A 
ATOM     14  C   UNL d   1     -24.504  22.545  22.165  0.00  0.00     0.037 A 
ATOM     15  C   UNL d   1     -24.020  23.608  22.917  0.00  0.00     0.068 A 
ATOM     16  C   UNL d   1     -24.871  24.310  23.759  0.00  0.00     0.037 A 
ATOM     17  C   UNL d   1     -26.201  23.959  23.847  0.00  0.00     0.016 A 
BRANCH  15  18
ATOM     18  O   UNL d   1     -22.711  23.959  22.829  0.00  0.00    -0.351 OA
BRANCH  18  19
ATOM     19  C   UNL d   1     -22.426  25.325  22.518  0.00  0.00     0.175 C 
BRANCH  19  20
ATOM     20  C   UNL d   1     -21.578  25.935  23.636  0.00  0.00     0.022 C 
ATOM     21  C   UNL d   1     -22.371  27.045  24.329  0.00  0.00     0.007 C 
ENDBRANCH  19  20
ENDBRANCH  18  19
ENDBRANCH  15  18
ENDBRANCH   1  12
BRANCH   3  22
ATOM     22  C   UNL d   1     -30.537  21.265  25.816  0.00  0.00     0.177 C 
ATOM     23  O   UNL d   1     -31.297  21.987  26.429  0.00  0.00    -0.646 OA
BRANCH  22  24
ATOM     24  O   UNL d   1     -30.221  20.050  26.305  0.00  0.00    -0.773 OA
ATOM     25  H   UNL d   1     -30.946  19.418  26.411  0.00  0.00     0.167 HD
ENDBRANCH  22  24
ENDBRANCH   3  22
TORSDOF 6
ENDMDL
