MODEL 1
REMARK VINA RESULT:     -11.9      0.000      0.000
REMARK  4 active torsions:
REMARK  status: ('A' for Active; 'I' for Inactive)
REMARK    1  A    between atoms: C_2  and  O_3 
REMARK    2  A    between atoms: C_2  and  C_4 
REMARK    3  A    between atoms: C_6  and  C_7 
REMARK    4  A    between atoms: C_10  and  C_11 
ROOT
ATOM      1  C   UNL d   1     -30.228  21.585  24.563  0.00  0.00     0.052 A 
ATOM      2  C   UNL d   1     -28.883  21.890  24.408  0.00  0.00     0.051 A 
ATOM      3  C   UNL d   1     -28.410  22.297  23.151  0.00  0.00     0.068 A 
ATOM      4  N   UNL d   1     -29.199  22.401  22.102  0.00  0.00    -0.247 NA
ATOM      5  C   UNL d   1     -30.503  22.126  22.161  0.00  0.00     0.068 A 
ATOM      6  C   UNL d   1     -31.322  22.246  21.023  0.00  0.00     0.032 A 
ATOM      7  C   UNL d   1     -32.649  21.959  21.114  0.00  0.00     0.002 A 
ATOM      8  C   UNL d   1     -33.216  21.548  22.317  0.00  0.00     0.001 A 
ATOM      9  C   UNL d   1     -32.453  21.420  23.441  0.00  0.00     0.015 A 
ATOM     10  C   UNL d   1     -31.084  21.707  23.384  0.00  0.00     0.010 A 
ENDROOT
BRANCH   3  11
ATOM     11  C   UNL d   1     -26.971  22.621  22.999  0.00  0.00    -0.007 A 
ATOM     12  C   UNL d   1     -26.408  23.661  23.739  0.00  0.00     0.014 A 
ATOM     13  C   UNL d   1     -25.072  23.962  23.598  0.00  0.00     0.013 A 
ATOM     14  C   UNL d   1     -24.281  23.227  22.715  0.00  0.00    -0.023 A 
ATOM     15  C   UNL d   1     -24.843  22.188  21.974  0.00  0.00     0.013 A 
ATOM     16  C   UNL d   1     -26.179  21.882  22.119  0.00  0.00     0.014 A 
BRANCH  14  17
ATOM     17  C   UNL d   1     -22.842  23.551  22.564  0.00  0.00     0.015 A 
ATOM     18  C   UNL d   1     -22.337  23.976  21.335  0.00  0.00     0.136 A 
ATOM     19  N   UNL d   1     -21.058  24.265  21.200  0.00  0.00    -0.248 NA
ATOM     20 CL   UNL d   1     -23.401  24.130  19.973  0.00  0.00    -0.061 Cl
ATOM     21  C   UNL d   1     -20.211  24.163  22.207  0.00  0.00     0.118 A 
ATOM     22  C   UNL d   1     -20.635  23.748  23.456  0.00  0.00     0.020 A 
ATOM     23  C   UNL d   1     -21.970  23.439  23.650  0.00  0.00     0.017 A 
ENDBRANCH  14  17
ENDBRANCH   3  11
BRANCH   1  24
ATOM     24  C   UNL d   1     -30.772  21.151  25.867  0.00  0.00     0.177 C 
ATOM     25  O   UNL d   1     -31.556  21.862  26.465  0.00  0.00    -0.646 OA
BRANCH  24  26
ATOM     26  O   UNL d   1     -30.398  19.969  26.394  0.00  0.00    -0.773 OA
ATOM     27  H   UNL d   1     -30.112  19.971  27.317  0.00  0.00     0.167 HD
ENDBRANCH  24  26
ENDBRANCH   1  24
TORSDOF 4
ENDMDL
