MODEL 1
REMARK VINA RESULT:      -9.9      0.000      0.000
REMARK  10 active torsions:
REMARK  status: ('A' for Active; 'I' for Inactive)
REMARK    1  A    between atoms: C_2  and  N_3 
REMARK    2  A    between atoms: C_4  and  C_5 
REMARK    3  A    between atoms: C_5  and  O_6 
REMARK    4  A    between atoms: N_8  and  C_9 
REMARK    5  A    between atoms: C_11  and  O_12 
REMARK    6  A    between atoms: O_12  and  C_13 
REMARK    7  A    between atoms: C_13  and  C_15 
REMARK    8  A    between atoms: C_19  and  C_20 
REMARK       I    between atoms: C_20  and  N_22 
REMARK    9  A    between atoms: N_22  and  C_23 
REMARK   10  A    between atoms: C_28  and  O_29 
ROOT
ATOM      1  C   UNL d   1     -26.621  23.496  23.738  0.00  0.00     0.104 A 
ATOM      2  C   UNL d   1     -25.693  23.003  22.830  0.00  0.00     0.073 A 
ATOM      3  C   UNL d   1     -24.437  23.576  22.741  0.00  0.00     0.087 A 
ATOM      4  C   UNL d   1     -24.102  24.656  23.573  0.00  0.00     0.068 A 
ATOM      5  C   UNL d   1     -25.042  25.146  24.485  0.00  0.00     0.064 A 
ATOM      6  C   UNL d   1     -26.290  24.569  24.565  0.00  0.00     0.146 A 
ATOM      7  F   UNL d   1     -27.197  25.044  25.446  0.00  0.00    -0.204 F 
ENDROOT
BRANCH   4   8
ATOM      8  C   UNL d   1     -22.766  25.270  23.485  0.00  0.00     0.259 C 
ATOM      9  O   UNL d   1     -22.616  26.318  22.888  0.00  0.00    -0.267 OA
ATOM     10  N   UNL d   1     -21.710  24.670  24.070  0.00  0.00    -0.319 N 
ATOM     11  H   UNL d   1     -21.812  23.795  24.474  0.00  0.00     0.169 HD
BRANCH  10  12
ATOM     12  C   UNL d   1     -20.465  25.311  24.093  0.00  0.00     0.098 A 
ATOM     13  C   UNL d   1     -19.502  24.991  23.146  0.00  0.00     0.097 A 
ATOM     14  C   UNL d   1     -18.272  25.631  23.169  0.00  0.00     0.089 A 
ATOM     15 CL   UNL d   1     -19.837  23.794  21.934  0.00  0.00    -0.079 Cl
ATOM     16  C   UNL d   1     -18.002  26.582  24.142  0.00  0.00     0.041 A 
ATOM     17  C   UNL d   1     -18.962  26.897  25.087  0.00  0.00     0.047 A 
ATOM     18  C   UNL d   1     -20.191  26.266  25.066  0.00  0.00     0.144 A 
ATOM     19  F   UNL d   1     -21.125  26.576  25.991  0.00  0.00    -0.204 F 
BRANCH  14  20
ATOM     20  O   UNL d   1     -17.327  25.322  22.242  0.00  0.00    -0.359 OA
ATOM     21  H   UNL d   1     -17.544  25.613  21.345  0.00  0.00     0.217 HD
ENDBRANCH  14  20
ENDBRANCH  10  12
ENDBRANCH   4   8
BRANCH   3  22
ATOM     22  O   UNL d   1     -23.530  23.094  21.854  0.00  0.00    -0.336 OA
BRANCH  22  23
ATOM     23  C   UNL d   1     -23.802  23.308  20.467  0.00  0.00     0.232 C 
ATOM     24  C   UNL d   1     -22.510  23.697  19.747  0.00  0.00     0.049 C 
BRANCH  23  25
ATOM     25  C   UNL d   1     -24.360  22.022  19.853  0.00  0.00     0.413 C 
ATOM     26  F   UNL d   1     -24.153  20.956  20.735  0.00  0.00    -0.168 F 
ATOM     27  F   UNL d   1     -25.730  22.174  19.618  0.00  0.00    -0.168 F 
ATOM     28  F   UNL d   1     -23.706  21.760  18.645  0.00  0.00    -0.168 F 
ENDBRANCH  23  25
ENDBRANCH  22  23
ENDBRANCH   3  22
BRANCH   1  29
ATOM     29  N   UNL d   1     -27.887  22.916  23.823  0.00  0.00    -0.178 N 
ATOM     30  N   UNL d   1     -28.931  23.058  22.897  0.00  0.00    -0.147 NA
ATOM     31  C   UNL d   1     -29.943  22.373  23.321  0.00  0.00     0.154 A 
ATOM     32  N   UNL d   1     -29.605  21.772  24.509  0.00  0.00    -0.283 N 
ATOM     33  C   UNL d   1     -28.334  22.110  24.808  0.00  0.00     0.351 A 
ATOM     34  O   UNL d   1     -27.705  21.754  25.789  0.00  0.00    -0.244 OA
BRANCH  31  35
ATOM     35  C   UNL d   1     -31.273  22.251  22.626  0.00  0.00     0.244 C 
BRANCH  35  36
ATOM     36  O   UNL d   1     -31.080  22.322  21.211  0.00  0.00    -0.393 OA
ATOM     37  H   UNL d   1     -30.660  23.140  20.912  0.00  0.00     0.209 HD
ENDBRANCH  35  36
ENDBRANCH  31  35
BRANCH  32  38
ATOM     38  C   UNL d   1     -30.475  20.910  25.312  0.00  0.00     0.131 C 
ATOM     39  C   UNL d   1     -31.649  21.730  25.850  0.00  0.00     0.027 C 
ENDBRANCH  32  38
ENDBRANCH   1  29
TORSDOF 10
ENDMDL
