MODEL 1
REMARK VINA RESULT:      -9.1      0.000      0.000
REMARK  10 active torsions:
REMARK  status: ('A' for Active; 'I' for Inactive)
REMARK    1  A    between atoms: C_2  and  N_3 
REMARK    2  A    between atoms: C_4  and  C_5 
REMARK    3  A    between atoms: C_5  and  O_6 
REMARK    4  A    between atoms: N_8  and  C_9 
REMARK    5  A    between atoms: C_11  and  O_12 
REMARK    6  A    between atoms: O_12  and  C_13 
REMARK    7  A    between atoms: C_13  and  C_15 
REMARK    8  A    between atoms: C_20  and  O_21 
REMARK    9  A    between atoms: O_21  and  C_22 
REMARK   10  A    between atoms: C_27  and  O_28 
ROOT
ATOM      1  C   UNL d   1     -27.953  22.501  24.051  0.00  0.00     0.067 A 
ATOM      2  C   UNL d   1     -27.097  21.805  23.192  0.00  0.00     0.069 A 
ATOM      3  C   UNL d   1     -25.903  22.344  22.803  0.00  0.00     0.087 A 
ATOM      4  C   UNL d   1     -25.528  23.617  23.272  0.00  0.00     0.061 A 
ATOM      5  C   UNL d   1     -24.309  24.217  22.901  0.00  0.00     0.183 A 
ATOM      6  N   UNL d   1     -23.999  25.412  23.366  0.00  0.00    -0.236 NA
ATOM      7  C   UNL d   1     -24.794  26.091  24.182  0.00  0.00     0.120 A 
ATOM      8  C   UNL d   1     -25.991  25.597  24.597  0.00  0.00     0.032 A 
ATOM      9  C   UNL d   1     -26.392  24.322  24.148  0.00  0.00    -0.015 A 
ATOM     10  C   UNL d   1     -27.612  23.751  24.528  0.00  0.00     0.044 A 
ENDROOT
BRANCH   1  11
ATOM     11  N   UNL d   1     -29.169  21.924  24.432  0.00  0.00    -0.181 N 
ATOM     12  N   UNL d   1     -29.357  20.975  25.447  0.00  0.00    -0.147 NA
ATOM     13  C   UNL d   1     -30.617  20.685  25.500  0.00  0.00     0.154 A 
ATOM     14  N   UNL d   1     -31.280  21.416  24.544  0.00  0.00    -0.283 N 
ATOM     15  C   UNL d   1     -30.380  22.181  23.895  0.00  0.00     0.351 A 
ATOM     16  O   UNL d   1     -30.616  22.959  22.989  0.00  0.00    -0.244 OA
BRANCH  13  17
ATOM     17  C   UNL d   1     -31.252  19.705  26.452  0.00  0.00     0.244 C 
BRANCH  17  18
ATOM     18  O   UNL d   1     -30.908  18.373  26.066  0.00  0.00    -0.393 OA
ATOM     19  H   UNL d   1     -29.975  18.258  25.838  0.00  0.00     0.209 HD
ENDBRANCH  17  18
ENDBRANCH  13  17
BRANCH  14  20
ATOM     20  C   UNL d   1     -32.720  21.375  24.279  0.00  0.00     0.131 C 
ATOM     21  C   UNL d   1     -33.031  20.213  23.333  0.00  0.00     0.027 C 
ENDBRANCH  14  20
ENDBRANCH   1  11
BRANCH   3  22
ATOM     22  O   UNL d   1     -25.085  21.656  21.967  0.00  0.00    -0.336 OA
BRANCH  22  23
ATOM     23  C   UNL d   1     -25.592  21.352  20.667  0.00  0.00     0.232 C 
ATOM     24  C   UNL d   1     -27.082  21.699  20.607  0.00  0.00     0.049 C 
BRANCH  23  25
ATOM     25  C   UNL d   1     -24.835  22.172  19.620  0.00  0.00     0.413 C 
ATOM     26  F   UNL d   1     -23.468  21.892  19.708  0.00  0.00    -0.168 F 
ATOM     27  F   UNL d   1     -25.298  21.839  18.343  0.00  0.00    -0.168 F 
ATOM     28  F   UNL d   1     -25.047  23.535  19.852  0.00  0.00    -0.168 F 
ENDBRANCH  23  25
ENDBRANCH  22  23
ENDBRANCH   3  22
BRANCH   5  29
ATOM     29  O   UNL d   1     -23.458  23.569  22.070  0.00  0.00    -0.286 OA
BRANCH  29  30
ATOM     30  C   UNL d   1     -22.190  24.046  21.957  0.00  0.00     0.141 A 
ATOM     31  C   UNL d   1     -21.304  23.920  23.016  0.00  0.00     0.104 A 
ATOM     32  C   UNL d   1     -20.010  24.407  22.898  0.00  0.00     0.092 A 
ATOM     33 CL   UNL d   1     -21.812  23.152  24.488  0.00  0.00    -0.078 Cl
ATOM     34  C   UNL d   1     -19.606  25.020  21.722  0.00  0.00     0.041 A 
ATOM     35  C   UNL d   1     -20.490  25.145  20.666  0.00  0.00     0.048 A 
ATOM     36  C   UNL d   1     -21.778  24.655  20.778  0.00  0.00     0.152 A 
ATOM     37  F   UNL d   1     -22.638  24.774  19.743  0.00  0.00    -0.203 F 
BRANCH  32  38
ATOM     38  O   UNL d   1     -19.140  24.285  23.936  0.00  0.00    -0.354 OA
ATOM     39  C   UNL d   1     -18.806  25.480  24.646  0.00  0.00     0.210 C 
ENDBRANCH  32  38
ENDBRANCH  29  30
ENDBRANCH   5  29
TORSDOF 10
ENDMDL
