MODEL 1
REMARK VINA RESULT:     -10.6      0.000      0.000
REMARK  4 active torsions:
REMARK  status: ('A' for Active; 'I' for Inactive)
REMARK    1  A    between atoms: O_2  and  C_3 
REMARK    2  A    between atoms: C_8  and  C_9 
REMARK       I    between atoms: C_9  and  N_11 
REMARK    3  A    between atoms: N_11  and  C_12 
REMARK    4  A    between atoms: C_15  and  C_16 
ROOT
ATOM      1  C   UNL d   1     -27.289  22.463  23.169  0.00  0.00     0.259 C 
ATOM      2  O   UNL d   1     -26.810  21.948  22.178  0.00  0.00    -0.267 OA
ATOM      3  N   UNL d   1     -26.550  23.309  23.915  0.00  0.00    -0.323 N 
ATOM      4  H   UNL d   1     -26.906  23.660  24.746  0.00  0.00     0.169 HD
ENDROOT
BRANCH   1   5
ATOM      5  C   UNL d   1     -28.681  22.165  23.556  0.00  0.00     0.066 A 
ATOM      6  C   UNL d   1     -29.732  22.441  22.671  0.00  0.00     0.084 A 
ATOM      7  C   UNL d   1     -31.038  22.156  23.043  0.00  0.00     0.045 A 
ATOM      8  C   UNL d   1     -31.294  21.602  24.283  0.00  0.00    -0.049 A 
ATOM      9  C   UNL d   1     -32.725  21.297  24.678  0.00  0.00     0.039 C 
ATOM     10  C   UNL d   1     -30.266  21.329  25.153  0.00  0.00    -0.051 A 
ATOM     11  C   UNL d   1     -32.910  19.778  24.693  0.00  0.00     0.005 C 
ATOM     12  C   UNL d   1     -32.491  19.193  26.027  0.00  0.00     0.001 C 
ATOM     13  C   UNL d   1     -31.003  19.271  26.306  0.00  0.00     0.005 C 
ATOM     14  C   UNL d   1     -30.560  20.721  26.509  0.00  0.00     0.039 C 
ATOM     15  C   UNL d   1     -28.959  21.599  24.803  0.00  0.00     0.027 A 
BRANCH   6  16
ATOM     16  O   UNL d   1     -29.474  22.986  21.454  0.00  0.00    -0.355 OA
ATOM     17  C   UNL d   1     -30.269  22.531  20.359  0.00  0.00     0.210 C 
ENDBRANCH   6  16
ENDBRANCH   1   5
BRANCH   3  18
ATOM     18  C   UNL d   1     -25.270  23.678  23.490  0.00  0.00     0.035 A 
ATOM     19  C   UNL d   1     -24.879  25.010  23.536  0.00  0.00     0.030 A 
ATOM     20  C   UNL d   1     -23.613  25.371  23.117  0.00  0.00     0.010 A 
ATOM     21  C   UNL d   1     -22.734  24.407  22.656  0.00  0.00    -0.051 A 
ATOM     22  C   UNL d   1     -23.123  23.080  22.605  0.00  0.00     0.010 A 
ATOM     23  C   UNL d   1     -24.387  22.713  23.022  0.00  0.00     0.030 A 
BRANCH  21  24
ATOM     24  C   UNL d   1     -21.352  24.803  22.205  0.00  0.00    -0.024 C 
ATOM     25  C   UNL d   1     -20.866  25.992  23.036  0.00  0.00     0.019 C 
ATOM     26  C   UNL d   1     -20.396  23.623  22.394  0.00  0.00     0.019 C 
ATOM     27  C   UNL d   1     -21.391  25.195  20.727  0.00  0.00     0.019 C 
ENDBRANCH  21  24
ENDBRANCH   3  18
TORSDOF 4
ENDMDL
