MODEL 1
REMARK VINA RESULT:     -12.2      0.000      0.000
REMARK  4 active torsions:
REMARK  status: ('A' for Active; 'I' for Inactive)
REMARK    1  A    between atoms: C_3  and  C_4 
REMARK    2  A    between atoms: C_7  and  C_8 
REMARK    3  A    between atoms: C_25  and  C_26 
REMARK    4  A    between atoms: C_26  and  O_28 
ROOT
ATOM      1  C   UNL d   1     -27.752  22.061  25.683  0.00  0.00     0.052 C 
ATOM      2  C   UNL d   1     -28.639  22.123  24.466  0.00  0.00    -0.015 A 
ATOM      3  C   UNL d   1     -28.132  22.593  23.245  0.00  0.00     0.074 A 
ATOM      4  N   UNL d   1     -28.870  22.659  22.156  0.00  0.00    -0.247 NA
ATOM      5  C   UNL d   1     -30.152  22.288  22.139  0.00  0.00     0.069 A 
ATOM      6  C   UNL d   1     -30.916  22.370  20.960  0.00  0.00     0.034 A 
ATOM      7  C   UNL d   1     -32.221  21.984  20.973  0.00  0.00     0.026 A 
ATOM      8  C   UNL d   1     -32.818  21.507  22.139  0.00  0.00     0.035 A 
ATOM      9 CL   UNL d   1     -34.486  21.026  22.112  0.00  0.00    -0.084 Cl
ATOM     10  C   UNL d   1     -32.108  21.415  23.301  0.00  0.00     0.038 A 
ATOM     11  C   UNL d   1     -30.764  21.802  23.322  0.00  0.00     0.012 A 
ATOM     12  C   UNL d   1     -29.964  21.721  24.545  0.00  0.00     0.058 A 
ENDROOT
BRANCH   3  13
ATOM     13  C   UNL d   1     -26.717  23.025  23.175  0.00  0.00    -0.007 A 
ATOM     14  C   UNL d   1     -25.785  22.252  22.480  0.00  0.00     0.014 A 
ATOM     15  C   UNL d   1     -24.471  22.656  22.411  0.00  0.00     0.013 A 
ATOM     16  C   UNL d   1     -24.068  23.831  23.045  0.00  0.00    -0.021 A 
ATOM     17  C   UNL d   1     -24.998  24.603  23.740  0.00  0.00     0.013 A 
ATOM     18  C   UNL d   1     -26.314  24.202  23.805  0.00  0.00     0.014 A 
BRANCH  16  19
ATOM     19  C   UNL d   1     -22.651  24.262  22.975  0.00  0.00     0.032 A 
ATOM     20  C   UNL d   1     -22.180  24.974  21.869  0.00  0.00     0.220 A 
ATOM     21  N   UNL d   1     -20.919  25.358  21.808  0.00  0.00    -0.232 NA
ATOM     22  F   UNL d   1     -23.021  25.272  20.855  0.00  0.00    -0.183 F 
ATOM     23  C   UNL d   1     -20.062  25.090  22.774  0.00  0.00     0.120 A 
ATOM     24  C   UNL d   1     -20.453  24.390  23.900  0.00  0.00     0.020 A 
ATOM     25  C   UNL d   1     -21.765  23.964  24.013  0.00  0.00     0.018 A 
ENDBRANCH  16  19
ENDBRANCH   3  13
BRANCH  12  26
ATOM     26  C   UNL d   1     -30.543  21.224  25.811  0.00  0.00     0.177 C 
ATOM     27  O   UNL d   1     -31.232  21.957  26.492  0.00  0.00    -0.646 OA
BRANCH  26  28
ATOM     28  O   UNL d   1     -30.306  19.960  26.209  0.00  0.00    -0.773 OA
ATOM     29  H   UNL d   1     -30.815  19.260  25.778  0.00  0.00     0.167 HD
ENDBRANCH  26  28
ENDBRANCH  12  26
TORSDOF 4
ENDMDL
