MODEL 1
REMARK VINA RESULT:     -10.7      0.000      0.000
REMARK  7 active torsions:
REMARK  status: ('A' for Active; 'I' for Inactive)
REMARK    1  A    between atoms: C_2  and  O_3 
REMARK    2  A    between atoms: C_2  and  C_4 
REMARK    3  A    between atoms: C_9  and  N_10 
REMARK    4  A    between atoms: N_10  and  C_11 
REMARK    5  A    between atoms: C_14  and  C_15 
REMARK    6  A    between atoms: C_19  and  O_20 
REMARK    7  A    between atoms: O_20  and  C_21 
ROOT
ATOM      1  C   UNL d   1     -25.367  22.304  22.367  0.00  0.00     0.071 A 
ATOM      2  C   UNL d   1     -25.989  21.530  21.393  0.00  0.00     0.033 A 
ATOM      3  C   UNL d   1     -27.365  21.476  21.329  0.00  0.00     0.014 A 
ATOM      4  C   UNL d   1     -28.135  22.199  22.240  0.00  0.00    -0.023 A 
ATOM      5  C   UNL d   1     -27.512  22.974  23.216  0.00  0.00     0.057 A 
ATOM      6  C   UNL d   1     -26.133  23.020  23.282  0.00  0.00     0.143 A 
ATOM      7  F   UNL d   1     -25.528  23.767  24.231  0.00  0.00    -0.204 F 
ENDROOT
BRANCH   1   8
ATOM      8  N   UNL d   1     -23.972  22.355  22.432  0.00  0.00    -0.352 N 
ATOM      9  H   UNL d   1     -23.494  21.766  23.036  0.00  0.00     0.166 HD
BRANCH   8  10
ATOM     10  C   UNL d   1     -23.273  23.248  21.633  0.00  0.00     0.067 A 
ATOM     11  C   UNL d   1     -22.339  24.136  22.198  0.00  0.00     0.067 A 
ATOM     12  C   UNL d   1     -21.660  25.011  21.341  0.00  0.00     0.040 A 
ATOM     13  C   UNL d   1     -21.934  24.972  19.990  0.00  0.00     0.117 A 
ATOM     14  N   UNL d   1     -22.820  24.129  19.496  0.00  0.00    -0.271 NA
ATOM     15  C   UNL d   1     -23.486  23.286  20.258  0.00  0.00     0.146 A 
BRANCH  11  16
ATOM     16  C   UNL d   1     -22.079  24.141  23.650  0.00  0.00     0.178 C 
ATOM     17  O   UNL d   1     -21.952  23.091  24.249  0.00  0.00    -0.646 OA
BRANCH  16  18
ATOM     18  O   UNL d   1     -21.981  25.310  24.314  0.00  0.00    -0.773 OA
ATOM     19  H   UNL d   1     -22.239  26.110  23.834  0.00  0.00     0.167 HD
ENDBRANCH  16  18
ENDBRANCH  11  16
ENDBRANCH   8  10
ENDBRANCH   1   8
BRANCH   4  20
ATOM     20  C   UNL d   1     -29.615  22.141  22.171  0.00  0.00    -0.023 A 
ATOM     21  C   UNL d   1     -30.361  21.931  23.328  0.00  0.00     0.049 A 
ATOM     22  C   UNL d   1     -31.743  21.879  23.257  0.00  0.00     0.079 A 
ATOM     23  C   UNL d   1     -32.382  22.036  22.035  0.00  0.00     0.037 A 
ATOM     24  C   UNL d   1     -31.643  22.246  20.886  0.00  0.00     0.004 A 
ATOM     25  C   UNL d   1     -30.266  22.303  20.948  0.00  0.00     0.012 A 
BRANCH  22  26
ATOM     26  O   UNL d   1     -32.475  21.673  24.384  0.00  0.00    -0.255 OA
BRANCH  26  27
ATOM     27  C   UNL d   1     -32.829  20.324  24.690  0.00  0.00     0.530 C 
ATOM     28  F   UNL d   1     -33.972  20.313  25.497  0.00  0.00    -0.144 F 
ATOM     29  F   UNL d   1     -33.090  19.630  23.503  0.00  0.00    -0.144 F 
ATOM     30  F   UNL d   1     -31.774  19.707  25.369  0.00  0.00    -0.144 F 
ENDBRANCH  26  27
ENDBRANCH  22  26
ENDBRANCH   4  20
TORSDOF 7
ENDMDL
