MODEL 1
REMARK VINA RESULT:      -7.9      0.000      0.000
REMARK  6 active torsions:
REMARK  status: ('A' for Active; 'I' for Inactive)
REMARK    1  A    between atoms: C_2  and  O_3 
REMARK    2  A    between atoms: C_2  and  C_33 
REMARK    3  A    between atoms: O_3  and  C_4 
REMARK    4  A    between atoms: C_6  and  N_7 
REMARK    5  A    between atoms: C_20  and  C_21 
REMARK       I    between atoms: C_21  and  N_23 
REMARK    6  A    between atoms: N_23  and  C_24 
ROOT
ATOM      1  C   UNL d   1     -19.390  26.108  24.926  0.00  0.00     0.087 A 
ATOM      2  C   UNL d   1     -20.115  25.304  24.064  0.00  0.00     0.073 A 
ATOM      3  C   UNL d   1     -21.447  25.593  23.801  0.00  0.00     0.104 A 
ATOM      4  C   UNL d   1     -22.060  26.692  24.400  0.00  0.00     0.146 A 
ATOM      5  F   UNL d   1     -23.357  26.967  24.139  0.00  0.00    -0.204 F 
ATOM      6  C   UNL d   1     -21.347  27.498  25.260  0.00  0.00     0.064 A 
ATOM      7  C   UNL d   1     -20.006  27.212  25.535  0.00  0.00     0.068 A 
ENDROOT
BRANCH   7   8
ATOM      8  C   UNL d   1     -19.241  28.069  26.458  0.00  0.00     0.259 C 
ATOM      9  O   UNL d   1     -19.699  28.346  27.551  0.00  0.00    -0.267 OA
ATOM     10  N   UNL d   1     -18.035  28.544  26.092  0.00  0.00    -0.318 N 
ATOM     11  H   UNL d   1     -17.705  28.391  25.193  0.00  0.00     0.169 HD
BRANCH  10  12
ATOM     12  C   UNL d   1     -17.255  29.262  27.011  0.00  0.00     0.113 A 
ATOM     13  C   UNL d   1     -16.430  28.585  27.901  0.00  0.00     0.149 A 
ATOM     14  C   UNL d   1     -15.663  29.295  28.807  0.00  0.00     0.087 A 
ATOM     15  F   UNL d   1     -16.377  27.235  27.882  0.00  0.00    -0.203 F 
ATOM     16  C   UNL d   1     -15.717  30.679  28.827  0.00  0.00     0.122 A 
ATOM     17  C   UNL d   1     -16.538  31.355  27.941  0.00  0.00     0.087 A 
ATOM     18  F   UNL d   1     -14.966  31.370  29.712  0.00  0.00    -0.206 F 
ATOM     19  C   UNL d   1     -17.303  30.651  27.029  0.00  0.00     0.149 A 
ATOM     20  F   UNL d   1     -18.100  31.311  26.162  0.00  0.00    -0.203 F 
ENDBRANCH  10  12
ENDBRANCH   7   8
BRANCH   1  21
ATOM     21  O   UNL d   1     -18.087  25.828  25.185  0.00  0.00    -0.345 OA
BRANCH  21  22
ATOM     22  C   UNL d   1     -17.227  25.650  24.059  0.00  0.00     0.129 C 
ATOM     23  C   UNL d   1     -17.318  26.875  23.147  0.00  0.00     0.040 C 
BRANCH  22  24
ATOM     24  C   UNL d   1     -15.784  25.480  24.541  0.00  0.00     0.015 C 
ATOM     25  C   UNL d   1     -15.162  26.857  24.781  0.00  0.00     0.007 C 
ATOM     26  C   UNL d   1     -13.720  26.689  25.263  0.00  0.00     0.000 C 
ATOM     27  C   UNL d   1     -13.709  25.889  26.568  0.00  0.00     0.000 C 
ATOM     28  C   UNL d   1     -14.331  24.512  26.328  0.00  0.00     0.000 C 
ATOM     29  C   UNL d   1     -15.773  24.681  25.846  0.00  0.00     0.007 C 
ENDBRANCH  22  24
ENDBRANCH  21  22
ENDBRANCH   1  21
BRANCH   3  30
ATOM     30  N   UNL d   1     -22.176  24.779  22.930  0.00  0.00    -0.178 N 
ATOM     31  C   UNL d   1     -22.004  24.682  21.594  0.00  0.00     0.351 A 
ATOM     32  N   UNL d   1     -22.886  23.774  21.142  0.00  0.00    -0.284 N 
ATOM     33  O   UNL d   1     -21.199  25.302  20.923  0.00  0.00    -0.244 OA
ATOM     34  C   UNL d   1     -23.638  23.331  22.209  0.00  0.00     0.131 A 
ATOM     35  C   UNL d   1     -23.039  23.286  19.766  0.00  0.00     0.135 C 
ATOM     36  N   UNL d   1     -23.218  23.908  23.283  0.00  0.00    -0.149 NA
ATOM     37  C   UNL d   1     -24.770  22.337  22.082  0.00  0.00     0.081 C 
ATOM     38  C   UNL d   1     -24.611  21.604  20.743  0.00  0.00     0.009 C 
ATOM     39  C   UNL d   1     -24.420  22.637  19.628  0.00  0.00     0.021 C 
ENDBRANCH   3  30
TORSDOF 6
ENDMDL
