MODEL 1
REMARK VINA RESULT:     -10.5      0.000      0.000
REMARK  3 active torsions:
REMARK  status: ('A' for Active; 'I' for Inactive)
REMARK       I    between atoms: C_2  and  N_3 
REMARK    1  A    between atoms: C_2  and  C_20 
REMARK    2  A    between atoms: N_3  and  C_4 
REMARK    3  A    between atoms: N_12  and  C_13 
ROOT
ATOM      1  C   UNL d   1     -26.103  22.235  22.655  0.00  0.00     0.121 C 
ATOM      2  C   UNL d   1     -26.447  22.338  21.163  0.00  0.00     0.030 C 
ATOM      3  C   UNL d   1     -27.471  21.260  20.799  0.00  0.00     0.008 C 
ATOM      4  C   UNL d   1     -28.826  21.606  21.432  0.00  0.00     0.060 C 
ATOM      5  C   UNL d   1     -28.604  21.909  22.893  0.00  0.00     0.046 A 
ATOM      6  C   UNL d   1     -27.392  22.188  23.437  0.00  0.00     0.008 A 
ATOM      7  C   UNL d   1     -27.573  22.412  24.801  0.00  0.00     0.150 A 
ATOM      8  N   UNL d   1     -28.849  22.274  25.070  0.00  0.00    -0.179 NA
ATOM      9  N   UNL d   1     -29.518  21.957  23.878  0.00  0.00    -0.235 N 
ENDROOT
BRANCH   1  10
ATOM     10  N   UNL d   1     -25.320  23.405  23.062  0.00  0.00    -0.347 N 
ATOM     11  C   UNL d   1     -23.974  23.354  23.042  0.00  0.00     0.270 C 
ATOM     12  O   UNL d   1     -23.409  22.339  22.687  0.00  0.00    -0.266 OA
ATOM     13  H   UNL d   1     -25.772  24.216  23.346  0.00  0.00     0.163 HD
BRANCH  11  14
ATOM     14  C   UNL d   1     -23.182  24.538  23.454  0.00  0.00     0.123 A 
ATOM     15  N   UNL d   1     -21.941  24.379  23.892  0.00  0.00    -0.256 NA
ATOM     16  C   UNL d   1     -21.205  25.403  24.268  0.00  0.00     0.117 A 
ATOM     17  C   UNL d   1     -21.704  26.695  24.216  0.00  0.00     0.019 A 
ATOM     18  C   UNL d   1     -22.998  26.906  23.764  0.00  0.00     0.004 A 
ATOM     19  C   UNL d   1     -23.750  25.808  23.376  0.00  0.00     0.037 A 
ENDBRANCH  11  14
ENDBRANCH   1  10
BRANCH   9  20
ATOM     20  C   UNL d   1     -30.896  21.730  23.739  0.00  0.00     0.097 A 
ATOM     21  C   UNL d   1     -31.539  20.816  24.566  0.00  0.00     0.145 A 
ATOM     22  C   UNL d   1     -32.898  20.600  24.429  0.00  0.00     0.045 A 
ATOM     23  F   UNL d   1     -30.838  20.144  25.505  0.00  0.00    -0.204 F 
ATOM     24  C   UNL d   1     -33.614  21.283  23.463  0.00  0.00     0.003 A 
ATOM     25  C   UNL d   1     -32.975  22.189  22.636  0.00  0.00     0.002 A 
ATOM     26  C   UNL d   1     -31.619  22.414  22.772  0.00  0.00     0.035 A 
ENDBRANCH   9  20
TORSDOF 3
ENDMDL
