MODEL 1
REMARK VINA RESULT:      -9.5      0.000      0.000
REMARK  10 active torsions:
REMARK  status: ('A' for Active; 'I' for Inactive)
REMARK    1  A    between atoms: C_2  and  C_3 
REMARK    2  A    between atoms: C_3  and  C_4 
REMARK    3  A    between atoms: C_4  and  O_6 
REMARK    4  A    between atoms: O_6  and  C_7 
REMARK    5  A    between atoms: C_9  and  N_10 
REMARK    6  A    between atoms: C_12  and  C_13 
REMARK    7  A    between atoms: C_13  and  O_16 
REMARK    8  A    between atoms: C_24  and  C_25 
REMARK       I    between atoms: C_25  and  N_27 
REMARK    9  A    between atoms: N_27  and  C_28 
REMARK   10  A    between atoms: C_34  and  O_35 
ROOT
ATOM      1  C   UNL d   1     -26.363  23.107  23.377  0.00  0.00     0.087 A 
ATOM      2  C   UNL d   1     -27.727  22.948  23.553  0.00  0.00     0.073 A 
ATOM      3  C   UNL d   1     -28.446  22.120  22.702  0.00  0.00     0.104 A 
ATOM      4  C   UNL d   1     -27.799  21.444  21.668  0.00  0.00     0.146 A 
ATOM      5  F   UNL d   1     -28.505  20.638  20.844  0.00  0.00    -0.204 F 
ATOM      6  C   UNL d   1     -26.444  21.599  21.480  0.00  0.00     0.064 A 
ATOM      7  C   UNL d   1     -25.711  22.428  22.337  0.00  0.00     0.068 A 
ENDROOT
BRANCH   7   8
ATOM      8  C   UNL d   1     -24.260  22.591  22.144  0.00  0.00     0.259 C 
ATOM      9  O   UNL d   1     -23.556  21.614  21.972  0.00  0.00    -0.267 OA
ATOM     10  N   UNL d   1     -23.712  23.822  22.157  0.00  0.00    -0.319 N 
ATOM     11  H   UNL d   1     -24.258  24.594  22.374  0.00  0.00     0.169 HD
BRANCH  10  12
ATOM     12  C   UNL d   1     -22.355  23.988  21.854  0.00  0.00     0.094 A 
ATOM     13  C   UNL d   1     -21.953  24.330  20.563  0.00  0.00     0.191 A 
ATOM     14  N   UNL d   1     -20.673  24.487  20.276  0.00  0.00    -0.235 NA
ATOM     15  C   UNL d   1     -19.733  24.328  21.190  0.00  0.00     0.120 A 
ATOM     16  C   UNL d   1     -20.055  23.993  22.490  0.00  0.00     0.028 A 
ATOM     17  C   UNL d   1     -21.387  23.814  22.836  0.00  0.00    -0.029 A 
ATOM     18  C   UNL d   1     -21.774  23.445  24.245  0.00  0.00     0.050 C 
BRANCH  13  19
ATOM     19  O   UNL d   1     -22.886  24.503  19.592  0.00  0.00    -0.338 OA
ATOM     20  C   UNL d   1     -23.459  23.325  19.024  0.00  0.00     0.211 C 
ENDBRANCH  13  19
ENDBRANCH  10  12
ENDBRANCH   7   8
BRANCH   1  21
ATOM     21  O   UNL d   1     -25.659  23.915  24.208  0.00  0.00    -0.345 OA
BRANCH  21  22
ATOM     22  C   UNL d   1     -25.997  25.304  24.202  0.00  0.00     0.124 C 
ATOM     23  C   UNL d   1     -26.336  25.752  25.626  0.00  0.00     0.040 C 
BRANCH  22  24
ATOM     24  C   UNL d   1     -24.809  26.116  23.682  0.00  0.00     0.032 C 
BRANCH  24  25
ATOM     25  C   UNL d   1     -23.771  26.274  24.796  0.00  0.00    -0.002 C 
ATOM     26  C   UNL d   1     -22.564  27.046  24.262  0.00  0.00     0.005 C 
ENDBRANCH  24  25
ENDBRANCH  22  24
ENDBRANCH  21  22
ENDBRANCH   1  21
BRANCH   3  27
ATOM     27  N   UNL d   1     -29.822  21.962  22.883  0.00  0.00    -0.178 N 
ATOM     28  C   UNL d   1     -30.444  21.630  24.033  0.00  0.00     0.351 A 
ATOM     29  N   UNL d   1     -31.768  21.586  23.777  0.00  0.00    -0.286 N 
ATOM     30  O   UNL d   1     -29.910  21.412  25.105  0.00  0.00    -0.244 OA
ATOM     31  C   UNL d   1     -31.961  21.888  22.451  0.00  0.00     0.164 A 
ATOM     32  C   UNL d   1     -32.818  21.266  24.746  0.00  0.00     0.163 C 
ATOM     33  N   UNL d   1     -30.811  22.115  21.902  0.00  0.00    -0.146 NA
BRANCH  31  34
ATOM     34  C   UNL d   1     -33.294  21.945  21.751  0.00  0.00     0.112 C 
ATOM     35  C   UNL d   1     -33.973  20.575  21.833  0.00  0.00     0.054 C 
ATOM     36  C   UNL d   1     -34.181  22.994  22.425  0.00  0.00     0.054 C 
BRANCH  34  37
ATOM     37  O   UNL d   1     -33.098  22.297  20.380  0.00  0.00    -0.383 OA
ATOM     38  H   UNL d   1     -33.608  21.758  19.758  0.00  0.00     0.211 HD
ENDBRANCH  34  37
ENDBRANCH  31  34
ENDBRANCH   3  27
TORSDOF 10
ENDMDL
