MODEL 1
REMARK VINA RESULT:      -8.5      0.000      0.000
REMARK  4 active torsions:
REMARK  status: ('A' for Active; 'I' for Inactive)
REMARK    1  A    between atoms: C_2  and  C_4 
REMARK    2  A    between atoms: C_4  and  C_7 
REMARK       I    between atoms: C_7  and  N_9 
REMARK    3  A    between atoms: N_9  and  C_10 
REMARK    4  A    between atoms: C_13  and  C_14 
ROOT
ATOM      1  C   UNL d   1     -31.699  21.853  24.524  0.00  0.00     0.253 C 
ATOM      2  C   UNL d   1     -32.596  21.190  23.565  0.00  0.00     0.081 C 
ATOM      3  N   UNL d   1     -33.289  20.678  22.824  0.00  0.00    -0.196 NA
ENDROOT
BRANCH   1   4
ATOM      4  C   UNL d   1     -31.463  20.943  25.702  0.00  0.00     0.149 C 
ATOM      5  C   UNL d   1     -31.992  19.532  25.681  0.00  0.00     0.093 C 
ATOM      6  O   UNL d   1     -30.850  21.344  26.662  0.00  0.00    -0.296 OA
ENDBRANCH   1   4
BRANCH   1   7
ATOM      7  C   UNL d   1     -30.383  22.159  23.855  0.00  0.00     0.247 C 
ATOM      8  O   UNL d   1     -30.347  22.912  22.905  0.00  0.00    -0.271 OA
ATOM      9  N   UNL d   1     -29.248  21.597  24.313  0.00  0.00    -0.326 N 
ATOM     10  H   UNL d   1     -29.286  20.937  25.024  0.00  0.00     0.169 HD
BRANCH   9  11
ATOM     11  C   UNL d   1     -28.014  21.964  23.765  0.00  0.00     0.034 A 
ATOM     12  C   UNL d   1     -27.570  21.372  22.590  0.00  0.00     0.030 A 
ATOM     13  C   UNL d   1     -26.350  21.734  22.054  0.00  0.00     0.018 A 
ATOM     14  C   UNL d   1     -25.571  22.687  22.685  0.00  0.00     0.048 A 
ATOM     15  C   UNL d   1     -26.013  23.283  23.851  0.00  0.00     0.018 A 
ATOM     16  C   UNL d   1     -27.233  22.925  24.393  0.00  0.00     0.030 A 
BRANCH  14  17
ATOM     17  C   UNL d   1     -24.239  23.079  22.098  0.00  0.00     0.417 C 
ATOM     18  F   UNL d   1     -24.047  24.456  22.257  0.00  0.00    -0.166 F 
ATOM     19  F   UNL d   1     -23.217  22.387  22.757  0.00  0.00    -0.166 F 
ATOM     20  F   UNL d   1     -24.217  22.759  20.737  0.00  0.00    -0.166 F 
ENDBRANCH  14  17
ENDBRANCH   9  11
ENDBRANCH   1   7
TORSDOF 4
ENDMDL
