MODEL 1
REMARK VINA RESULT:      -9.0      0.000      0.000
REMARK  6 active torsions:
REMARK  status: ('A' for Active; 'I' for Inactive)
REMARK    1  A    between atoms: C_2  and  N_3 
REMARK    2  A    between atoms: C_4  and  C_5 
REMARK    3  A    between atoms: C_5  and  O_6 
REMARK    4  A    between atoms: N_8  and  C_9 
REMARK    5  A    between atoms: C_12  and  C_13 
REMARK    6  A    between atoms: N_17  and  C_18 
ROOT
ATOM      1  C   UNL d   1     -28.709  22.205  22.130  0.00  0.00     0.103 A 
ATOM      2  C   UNL d   1     -28.020  23.094  22.938  0.00  0.00     0.048 A 
ATOM      3  C   UNL d   1     -26.643  23.235  22.780  0.00  0.00    -0.010 A 
ATOM      4  C   UNL d   1     -25.859  24.155  23.607  0.00  0.00    -0.027 A 
ATOM      5  C   UNL d   1     -24.535  24.257  23.408  0.00  0.00     0.109 A 
ATOM      6  N   UNL d   1     -23.881  23.526  22.454  0.00  0.00    -0.286 N 
ATOM      7  C   UNL d   1     -24.522  22.656  21.648  0.00  0.00     0.263 A 
ATOM      8  O   UNL d   1     -23.904  22.024  20.811  0.00  0.00    -0.267 OA
ATOM      9  C   UNL d   1     -25.969  22.479  21.792  0.00  0.00     0.046 A 
ATOM     10  C   UNL d   1     -26.686  21.593  20.985  0.00  0.00     0.062 A 
ATOM     11  C   UNL d   1     -28.035  21.462  21.157  0.00  0.00     0.146 A 
ATOM     12  F   UNL d   1     -28.728  20.604  20.376  0.00  0.00    -0.204 F 
ENDROOT
BRANCH   1  13
ATOM     13  N   UNL d   1     -30.090  22.055  22.285  0.00  0.00    -0.178 N 
ATOM     14  N   UNL d   1     -31.054  22.137  21.272  0.00  0.00    -0.147 NA
ATOM     15  C   UNL d   1     -32.217  21.944  21.805  0.00  0.00     0.154 A 
ATOM     16  N   UNL d   1     -32.057  21.732  23.153  0.00  0.00    -0.283 N 
ATOM     17  C   UNL d   1     -30.743  21.809  23.441  0.00  0.00     0.351 A 
ATOM     18  O   UNL d   1     -30.236  21.677  24.541  0.00  0.00    -0.244 OA
BRANCH  15  19
ATOM     19  C   UNL d   1     -33.531  21.948  21.069  0.00  0.00     0.244 C 
BRANCH  19  20
ATOM     20  O   UNL d   1     -33.898  20.606  20.740  0.00  0.00    -0.393 OA
ATOM     21  H   UNL d   1     -34.430  20.166  21.417  0.00  0.00     0.209 HD
ENDBRANCH  19  20
ENDBRANCH  15  19
BRANCH  16  22
ATOM     22  C   UNL d   1     -33.132  21.475  24.115  0.00  0.00     0.131 C 
ATOM     23  C   UNL d   1     -33.283  19.966  24.318  0.00  0.00     0.027 C 
ENDBRANCH  16  22
ENDBRANCH   1  13
BRANCH   4  24
ATOM     24  C   UNL d   1     -26.532  24.983  24.672  0.00  0.00     0.013 C 
ATOM     25  C   UNL d   1     -26.843  24.101  25.883  0.00  0.00     0.015 C 
ATOM     26  C   UNL d   1     -25.603  26.122  25.096  0.00  0.00     0.015 C 
ENDBRANCH   4  24
BRANCH   6  27
ATOM     27  C   UNL d   1     -22.498  23.689  22.310  0.00  0.00     0.066 A 
ATOM     28  C   UNL d   1     -21.981  24.405  21.239  0.00  0.00     0.057 A 
ATOM     29  N   UNL d   1     -20.679  24.561  21.100  0.00  0.00    -0.264 NA
ATOM     30  C   UNL d   1     -22.917  25.012  20.225  0.00  0.00     0.073 C 
ATOM     31  C   UNL d   1     -19.822  24.049  21.961  0.00  0.00     0.117 A 
ATOM     32  C   UNL d   1     -20.260  23.323  23.053  0.00  0.00     0.022 A 
ATOM     33  C   UNL d   1     -21.620  23.139  23.241  0.00  0.00     0.033 A 
ENDBRANCH   6  27
TORSDOF 6
ENDMDL
