MODEL 1
REMARK VINA RESULT:      -9.5      0.000      0.000
REMARK  6 active torsions:
REMARK  status: ('A' for Active; 'I' for Inactive)
REMARK    1  A    between atoms: C_2  and  O_3 
REMARK    2  A    between atoms: O_3  and  C_4 
REMARK    3  A    between atoms: C_4  and  C_6 
REMARK    4  A    between atoms: C_8  and  N_9 
REMARK    5  A    between atoms: N_9  and  C_10 
REMARK    6  A    between atoms: C_19  and  C_20 
ROOT
ATOM      1  C   UNL d   1     -23.302  23.695  20.809  0.00  0.00     0.113 A 
ATOM      2  S   UNL d   1     -24.252  22.395  20.094  0.00  0.00    -0.044 SA
ATOM      3  C   UNL d   1     -25.020  22.108  21.593  0.00  0.00     0.172 A 
ATOM      4  N   UNL d   1     -24.583  22.928  22.502  0.00  0.00    -0.222 NA
ATOM      5  C   UNL d   1     -23.661  23.795  22.139  0.00  0.00     0.093 A 
ENDROOT
BRANCH   3   6
ATOM      6  N   UNL d   1     -25.979  21.141  21.809  0.00  0.00    -0.335 N 
ATOM      7  H   UNL d   1     -25.760  20.205  21.689  0.00  0.00     0.168 HD
BRANCH   6   8
ATOM      8  C   UNL d   1     -27.270  21.513  22.200  0.00  0.00     0.035 A 
ATOM      9  C   UNL d   1     -28.257  21.710  21.244  0.00  0.00     0.055 A 
ATOM     10  C   UNL d   1     -29.530  22.081  21.633  0.00  0.00     0.058 A 
ATOM     11  C   UNL d   1     -29.824  22.247  22.976  0.00  0.00     0.055 A 
ATOM     12 CL   UNL d   1     -30.764  22.334  20.439  0.00  0.00    -0.082 Cl
ATOM     13  C   UNL d   1     -28.842  22.046  23.932  0.00  0.00     0.028 A 
ATOM     14 CL   UNL d   1     -31.424  22.709  23.463  0.00  0.00    -0.083 Cl
ATOM     15  C   UNL d   1     -27.567  21.680  23.547  0.00  0.00     0.031 A 
ENDBRANCH   6   8
ENDBRANCH   3   6
BRANCH   1  16
ATOM     16  C   UNL d   1     -22.346  24.495  20.140  0.00  0.00     0.302 C 
ATOM     17  O   UNL d   1     -22.695  25.515  19.575  0.00  0.00    -0.259 OA
BRANCH  16  18
ATOM     18  O   UNL d   1     -21.048  24.127  20.128  0.00  0.00    -0.317 OA
BRANCH  18  19
ATOM     19  C   UNL d   1     -20.144  24.911  20.908  0.00  0.00     0.174 C 
ATOM     20  C   UNL d   1     -19.320  23.992  21.813  0.00  0.00     0.034 C 
ENDBRANCH  18  19
ENDBRANCH  16  18
ENDBRANCH   1  16
BRANCH   5  21
ATOM     21  C   UNL d   1     -23.068  24.785  23.067  0.00  0.00    -0.006 A 
ATOM     22  C   UNL d   1     -23.545  26.095  23.092  0.00  0.00     0.014 A 
ATOM     23  C   UNL d   1     -22.989  27.012  23.960  0.00  0.00     0.001 A 
ATOM     24  C   UNL d   1     -21.959  26.636  24.802  0.00  0.00     0.000 A 
ATOM     25  C   UNL d   1     -21.480  25.338  24.782  0.00  0.00     0.001 A 
ATOM     26  C   UNL d   1     -22.033  24.409  23.924  0.00  0.00     0.014 A 
ENDBRANCH   5  21
TORSDOF 6
ENDMDL
