MODEL 1
REMARK VINA RESULT:     -12.5      0.000      0.000
REMARK  4 active torsions:
REMARK  status: ('A' for Active; 'I' for Inactive)
REMARK    1  A    between atoms: C_5  and  C_6 
REMARK    2  A    between atoms: C_9  and  C_10 
REMARK    3  A    between atoms: C_19  and  C_20 
REMARK    4  A    between atoms: C_20  and  O_22 
ROOT
ATOM      1  C   UNL d   1     -28.298  22.428  23.185  0.00  0.00     0.074 A 
ATOM      2  N   UNL d   1     -29.054  22.518  22.110  0.00  0.00    -0.247 NA
ATOM      3  C   UNL d   1     -30.348  22.198  22.120  0.00  0.00     0.069 A 
ATOM      4  C   UNL d   1     -31.130  22.305  20.954  0.00  0.00     0.035 A 
ATOM      5  C   UNL d   1     -32.448  21.971  20.993  0.00  0.00     0.044 A 
ATOM      6  C   UNL d   1     -33.043  21.522  22.173  0.00  0.00     0.117 A 
ATOM      7  F   UNL d   1     -34.356  21.200  22.178  0.00  0.00    -0.206 F 
ATOM      8  C   UNL d   1     -32.316  21.407  23.323  0.00  0.00     0.057 A 
ATOM      9  C   UNL d   1     -30.958  21.742  23.316  0.00  0.00     0.013 A 
ATOM     10  C   UNL d   1     -30.138  21.634  24.525  0.00  0.00     0.058 A 
ATOM     11  C   UNL d   1     -28.798  21.983  24.419  0.00  0.00    -0.015 A 
ATOM     12  C   UNL d   1     -27.891  21.891  25.618  0.00  0.00     0.052 C 
ENDROOT
BRANCH   1  13
ATOM     13  C   UNL d   1     -26.868  22.803  23.088  0.00  0.00    -0.007 A 
ATOM     14  C   UNL d   1     -26.402  23.949  23.732  0.00  0.00     0.014 A 
ATOM     15  C   UNL d   1     -25.071  24.295  23.645  0.00  0.00     0.013 A 
ATOM     16  C   UNL d   1     -24.193  23.505  22.903  0.00  0.00    -0.023 A 
ATOM     17  C   UNL d   1     -24.658  22.359  22.259  0.00  0.00     0.013 A 
ATOM     18  C   UNL d   1     -25.987  22.010  22.350  0.00  0.00     0.014 A 
BRANCH  16  19
ATOM     19  C   UNL d   1     -22.761  23.881  22.804  0.00  0.00     0.015 A 
ATOM     20  C   UNL d   1     -21.933  23.826  23.928  0.00  0.00     0.017 A 
ATOM     21  C   UNL d   1     -20.605  24.187  23.784  0.00  0.00     0.027 A 
ATOM     22  C   UNL d   1     -20.143  24.587  22.543  0.00  0.00     0.032 A 
ATOM     23  C   UNL d   1     -18.697  24.980  22.382  0.00  0.00     0.070 C 
ATOM     24  N   UNL d   1     -20.949  24.636  21.500  0.00  0.00    -0.241 NA
ATOM     25  C   UNL d   1     -22.220  24.296  21.587  0.00  0.00     0.137 A 
ATOM     26 CL   UNL d   1     -23.230  24.374  20.178  0.00  0.00    -0.061 Cl
ENDBRANCH  16  19
ENDBRANCH   1  13
BRANCH  10  27
ATOM     27  C   UNL d   1     -30.711  21.165  25.802  0.00  0.00     0.177 C 
ATOM     28  O   UNL d   1     -31.340  21.933  26.504  0.00  0.00    -0.646 OA
BRANCH  27  29
ATOM     29  O   UNL d   1     -30.538  19.887  26.189  0.00  0.00    -0.773 OA
ATOM     30  H   UNL d   1     -30.717  19.201  25.532  0.00  0.00     0.167 HD
ENDBRANCH  27  29
ENDBRANCH  10  27
TORSDOF 4
ENDMDL
