MODEL 1
REMARK VINA RESULT:      -9.7      0.000      0.000
REMARK  7 active torsions:
REMARK  status: ('A' for Active; 'I' for Inactive)
REMARK    1  A    between atoms: C_2  and  C_4 
REMARK    2  A    between atoms: N_6  and  C_7 
REMARK    3  A    between atoms: C_11  and  O_12 
REMARK    4  A    between atoms: C_22  and  N_23 
REMARK    5  A    between atoms: C_25  and  C_26 
REMARK    6  A    between atoms: C_26  and  O_27 
REMARK    7  A    between atoms: N_28  and  C_29 
ROOT
ATOM      1  C   UNL d   1     -25.699  24.131  23.613  0.00  0.00    -0.004 A 
ATOM      2  C   UNL d   1     -24.413  24.325  23.222  0.00  0.00     0.113 A 
ATOM      3  N   UNL d   1     -23.886  23.703  22.129  0.00  0.00    -0.286 N 
ATOM      4  C   UNL d   1     -24.601  22.857  21.363  0.00  0.00     0.263 A 
ATOM      5  O   UNL d   1     -24.088  22.324  20.396  0.00  0.00    -0.267 OA
ATOM      6  C   UNL d   1     -25.999  22.582  21.702  0.00  0.00     0.047 A 
ATOM      7  C   UNL d   1     -26.784  21.712  20.941  0.00  0.00     0.062 A 
ATOM      8  C   UNL d   1     -28.084  21.485  21.296  0.00  0.00     0.146 A 
ATOM      9  F   UNL d   1     -28.840  20.643  20.558  0.00  0.00    -0.204 F 
ATOM     10  C   UNL d   1     -28.640  22.114  22.413  0.00  0.00     0.103 A 
ATOM     11  C   UNL d   1     -27.882  22.986  23.179  0.00  0.00     0.048 A 
ATOM     12  C   UNL d   1     -26.556  23.221  22.834  0.00  0.00    -0.006 A 
ENDROOT
BRANCH  10  13
ATOM     13  N   UNL d   1     -29.972  21.867  22.757  0.00  0.00    -0.178 N 
ATOM     14  C   UNL d   1     -31.049  22.052  21.965  0.00  0.00     0.351 A 
ATOM     15  N   UNL d   1     -32.137  21.698  22.676  0.00  0.00    -0.283 N 
ATOM     16  O   UNL d   1     -31.039  22.464  20.818  0.00  0.00    -0.244 OA
ATOM     17  C   UNL d   1     -31.726  21.283  23.918  0.00  0.00     0.154 A 
ATOM     18  N   UNL d   1     -30.437  21.377  23.985  0.00  0.00    -0.147 NA
BRANCH  15  19
ATOM     19  C   UNL d   1     -33.523  21.742  22.203  0.00  0.00     0.131 C 
ATOM     20  C   UNL d   1     -33.906  20.382  21.616  0.00  0.00     0.027 C 
ENDBRANCH  15  19
BRANCH  17  21
ATOM     21  C   UNL d   1     -32.627  20.796  25.025  0.00  0.00     0.244 C 
BRANCH  21  22
ATOM     22  O   UNL d   1     -32.115  21.235  26.284  0.00  0.00    -0.393 OA
ATOM     23  H   UNL d   1     -31.885  20.514  26.888  0.00  0.00     0.209 HD
ENDBRANCH  21  22
ENDBRANCH  17  21
ENDBRANCH  10  13
BRANCH   1  24
ATOM     24  C   UNL d   1     -26.232  24.823  24.802  0.00  0.00    -0.059 C 
ATOM     25  C   UNL d   1     -26.074  26.135  24.935  0.00  0.00     0.019 C 
ATOM     26  C   UNL d   1     -26.956  24.041  25.867  0.00  0.00     0.048 C 
ENDBRANCH   1  24
BRANCH   3  27
ATOM     27  C   UNL d   1     -22.550  23.955  21.789  0.00  0.00     0.066 A 
ATOM     28  C   UNL d   1     -21.561  23.889  22.762  0.00  0.00     0.094 A 
ATOM     29  C   UNL d   1     -20.240  24.138  22.420  0.00  0.00     0.092 A 
ATOM     30 CL   UNL d   1     -21.977  23.494  24.400  0.00  0.00    -0.079 Cl
ATOM     31  C   UNL d   1     -19.910  24.454  21.110  0.00  0.00     0.039 A 
ATOM     32  C   UNL d   1     -20.896  24.521  20.144  0.00  0.00     0.005 A 
ATOM     33  C   UNL d   1     -22.213  24.267  20.477  0.00  0.00     0.032 A 
BRANCH  29  34
ATOM     34  O   UNL d   1     -19.269  24.074  23.369  0.00  0.00    -0.354 OA
ATOM     35  C   UNL d   1     -18.883  25.303  23.986  0.00  0.00     0.210 C 
ENDBRANCH  29  34
ENDBRANCH   3  27
TORSDOF 7
ENDMDL
