MODEL 1
REMARK VINA RESULT:     -10.7      0.000      0.000
REMARK  6 active torsions:
REMARK  status: ('A' for Active; 'I' for Inactive)
REMARK    1  A    between atoms: O_2  and  C_3 
REMARK    2  A    between atoms: C_5  and  C_6 
REMARK    3  A    between atoms: C_15  and  N_16 
REMARK       I    between atoms: N_16  and  C_17 
REMARK    4  A    between atoms: C_17  and  C_19 
REMARK    5  A    between atoms: C_20  and  C_21 
REMARK    6  A    between atoms: C_21  and  O_23 
ROOT
ATOM      1  C   UNL d   1     -27.129  21.710  22.641  0.00  0.00     0.095 A 
ATOM      2  C   UNL d   1     -25.894  22.297  22.435  0.00  0.00     0.051 A 
ATOM      3  C   UNL d   1     -25.397  23.211  23.364  0.00  0.00    -0.021 A 
ATOM      4  C   UNL d   1     -26.144  23.530  24.497  0.00  0.00     0.014 A 
ATOM      5  C   UNL d   1     -27.376  22.943  24.699  0.00  0.00     0.033 A 
ATOM      6  C   UNL d   1     -27.874  22.032  23.776  0.00  0.00     0.068 A 
ENDROOT
BRANCH   6   7
ATOM      7  N   UNL d   1     -29.122  21.438  23.984  0.00  0.00    -0.321 N 
ATOM      8  C   UNL d   1     -30.238  22.038  23.526  0.00  0.00     0.253 C 
ATOM      9  O   UNL d   1     -30.153  23.043  22.847  0.00  0.00    -0.268 OA
ATOM     10  H   UNL d   1     -29.185  20.593  24.457  0.00  0.00     0.169 HD
BRANCH   8  11
ATOM     11  C   UNL d   1     -31.564  21.477  23.852  0.00  0.00     0.023 C 
ATOM     12  C   UNL d   1     -32.775  21.552  22.952  0.00  0.00     0.045 C 
ATOM     13  C   UNL d   1     -33.749  20.485  23.507  0.00  0.00     0.010 C 
ATOM     14  C   UNL d   1     -33.310  20.397  24.986  0.00  0.00     0.046 C 
ATOM     15  C   UNL d   1     -31.864  20.835  24.990  0.00  0.00     0.027 C 
BRANCH  15  16
ATOM     16  C   UNL d   1     -30.914  20.591  26.091  0.00  0.00     0.172 C 
ATOM     17  O   UNL d   1     -30.551  21.511  26.795  0.00  0.00    -0.646 OA
BRANCH  16  18
ATOM     18  O   UNL d   1     -30.451  19.345  26.317  0.00  0.00    -0.773 OA
ATOM     19  H   UNL d   1     -31.064  18.714  26.717  0.00  0.00     0.167 HD
ENDBRANCH  16  18
ENDBRANCH  15  16
ENDBRANCH   8  11
ENDBRANCH   6   7
BRANCH   1  20
ATOM     20  O   UNL d   1     -27.616  20.819  21.737  0.00  0.00    -0.354 OA
ATOM     21  C   UNL d   1     -27.978  21.328  20.452  0.00  0.00     0.210 C 
ENDBRANCH   1  20
BRANCH   3  22
ATOM     22  C   UNL d   1     -24.073  23.843  23.147  0.00  0.00    -0.004 A 
ATOM     23  C   UNL d   1     -23.897  25.204  23.397  0.00  0.00     0.045 A 
ATOM     24  C   UNL d   1     -22.659  25.785  23.198  0.00  0.00     0.024 A 
ATOM     25 CL   UNL d   1     -25.229  26.163  23.963  0.00  0.00    -0.083 Cl
ATOM     26  C   UNL d   1     -21.600  25.023  22.742  0.00  0.00     0.002 A 
ATOM     27  C   UNL d   1     -21.770  23.673  22.487  0.00  0.00     0.001 A 
ATOM     28  C   UNL d   1     -23.000  23.080  22.687  0.00  0.00     0.014 A 
ENDBRANCH   3  22
TORSDOF 6
ENDMDL
