MODEL 1
REMARK VINA RESULT:     -10.6      0.000      0.000
REMARK  7 active torsions:
REMARK  status: ('A' for Active; 'I' for Inactive)
REMARK    1  A    between atoms: C_2  and  O_3 
REMARK    2  A    between atoms: C_2  and  C_33 
REMARK    3  A    between atoms: O_3  and  C_4 
REMARK    4  A    between atoms: C_6  and  N_7 
REMARK    5  A    between atoms: C_20  and  C_21 
REMARK       I    between atoms: C_21  and  N_23 
REMARK    6  A    between atoms: N_23  and  C_24 
REMARK    7  A    between atoms: C_29  and  C_30 
ROOT
ATOM      1  C   UNL d   1     -24.752  23.342  22.655  0.00  0.00     0.087 A 
ATOM      2  C   UNL d   1     -26.017  22.809  22.826  0.00  0.00     0.073 A 
ATOM      3  C   UNL d   1     -26.867  23.332  23.792  0.00  0.00     0.104 A 
ATOM      4  C   UNL d   1     -26.452  24.398  24.590  0.00  0.00     0.146 A 
ATOM      5  F   UNL d   1     -27.285  24.902  25.527  0.00  0.00    -0.204 F 
ATOM      6  C   UNL d   1     -25.197  24.939  24.424  0.00  0.00     0.064 A 
ATOM      7  C   UNL d   1     -24.334  24.418  23.453  0.00  0.00     0.068 A 
ENDROOT
BRANCH   7   8
ATOM      8  C   UNL d   1     -22.991  24.994  23.274  0.00  0.00     0.259 C 
ATOM      9  O   UNL d   1     -22.849  26.016  22.630  0.00  0.00    -0.267 OA
ATOM     10  N   UNL d   1     -21.919  24.389  23.821  0.00  0.00    -0.322 N 
ATOM     11  H   UNL d   1     -22.039  23.618  24.397  0.00  0.00     0.169 HD
BRANCH  10  12
ATOM     12  C   UNL d   1     -20.633  24.872  23.558  0.00  0.00     0.046 A 
ATOM     13  C   UNL d   1     -20.056  25.810  24.403  0.00  0.00     0.032 A 
ATOM     14  C   UNL d   1     -18.786  26.286  24.141  0.00  0.00     0.015 A 
ATOM     15  C   UNL d   1     -18.088  25.827  23.039  0.00  0.00     0.001 A 
ATOM     16  C   UNL d   1     -18.660  24.892  22.196  0.00  0.00     0.002 A 
ATOM     17  C   UNL d   1     -19.927  24.408  22.455  0.00  0.00     0.030 A 
BRANCH  13  18
ATOM     18  C   UNL d   1     -20.815  26.311  25.606  0.00  0.00     0.389 C 
ATOM     19  F   UNL d   1     -19.941  26.438  26.690  0.00  0.00    -0.209 F 
ATOM     20  F   UNL d   1     -21.380  27.557  25.314  0.00  0.00    -0.209 F 
ENDBRANCH  13  18
ENDBRANCH  10  12
ENDBRANCH   7   8
BRANCH   1  21
ATOM     21  O   UNL d   1     -23.918  22.828  21.716  0.00  0.00    -0.336 OA
BRANCH  21  22
ATOM     22  C   UNL d   1     -24.001  23.384  20.403  0.00  0.00     0.232 C 
ATOM     23  C   UNL d   1     -22.608  23.815  19.943  0.00  0.00     0.049 C 
BRANCH  22  24
ATOM     24  C   UNL d   1     -24.553  22.332  19.438  0.00  0.00     0.413 C 
ATOM     25  F   UNL d   1     -25.845  21.970  19.831  0.00  0.00    -0.168 F 
ATOM     26  F   UNL d   1     -24.592  22.861  18.143  0.00  0.00    -0.168 F 
ATOM     27  F   UNL d   1     -23.726  21.204  19.455  0.00  0.00    -0.168 F 
ENDBRANCH  22  24
ENDBRANCH  21  22
ENDBRANCH   1  21
BRANCH   3  28
ATOM     28  N   UNL d   1     -28.141  22.788  23.966  0.00  0.00    -0.178 N 
ATOM     29  C   UNL d   1     -28.543  21.998  24.986  0.00  0.00     0.351 A 
ATOM     30  N   UNL d   1     -29.839  21.722  24.790  0.00  0.00    -0.280 N 
ATOM     31  O   UNL d   1     -27.854  21.611  25.913  0.00  0.00    -0.244 OA
ATOM     32  C   UNL d   1     -30.238  22.314  23.606  0.00  0.00     0.155 A 
ATOM     33  C   UNL d   1     -30.751  20.948  25.641  0.00  0.00     0.161 C 
ATOM     34  N   UNL d   1     -29.242  22.957  23.109  0.00  0.00    -0.147 NA
ATOM     35  C   UNL d   1     -31.637  22.171  23.053  0.00  0.00     0.248 C 
ATOM     36  O   UNL d   1     -32.478  21.700  24.116  0.00  0.00    -0.382 OA
ATOM     37  C   UNL d   1     -31.965  20.547  24.791  0.00  0.00     0.188 C 
ENDBRANCH   3  28
TORSDOF 7
ENDMDL
