MODEL 1
REMARK VINA RESULT:      -9.9      0.000      0.000
REMARK  9 active torsions:
REMARK  status: ('A' for Active; 'I' for Inactive)
REMARK    1  A    between atoms: C_2  and  O_3 
REMARK    2  A    between atoms: O_3  and  C_4 
REMARK    3  A    between atoms: C_8  and  C_9 
REMARK    4  A    between atoms: C_12  and  N_13 
REMARK       I    between atoms: N_13  and  C_14 
REMARK    5  A    between atoms: C_14  and  C_16 
REMARK    6  A    between atoms: C_19  and  O_20 
REMARK    7  A    between atoms: C_19  and  C_21 
REMARK    8  A    between atoms: C_24  and  C_25 
REMARK    9  A    between atoms: C_25  and  O_27 
ROOT
ATOM      1  C   UNL d   1     -31.305  21.878  23.816  0.00  0.00     0.141 C 
ATOM      2  C   UNL d   1     -31.598  21.505  25.166  0.00  0.00     0.107 C 
ATOM      3  N   UNL d   1     -31.832  21.207  26.237  0.00  0.00    -0.191 NA
ATOM      4  C   UNL d   1     -32.252  21.733  22.846  0.00  0.00     0.069 C 
ENDROOT
BRANCH   1   5
ATOM      5  C   UNL d   1     -29.983  22.425  23.476  0.00  0.00     0.269 C 
ATOM      6  N   UNL d   1     -28.907  22.097  24.218  0.00  0.00    -0.322 N 
ATOM      7  H   UNL d   1     -29.016  21.565  25.021  0.00  0.00     0.169 HD
ATOM      8  O   UNL d   1     -29.861  23.174  22.524  0.00  0.00    -0.266 OA
BRANCH   6   9
ATOM      9  C   UNL d   1     -27.633  22.524  23.829  0.00  0.00     0.036 A 
ATOM     10  C   UNL d   1     -27.003  23.550  24.527  0.00  0.00     0.030 A 
ATOM     11  C   UNL d   1     -25.746  23.977  24.154  0.00  0.00     0.015 A 
ATOM     12  C   UNL d   1     -25.102  23.389  23.068  0.00  0.00    -0.009 A 
ATOM     13  C   UNL d   1     -25.737  22.355  22.356  0.00  0.00     0.052 A 
ATOM     14  C   UNL d   1     -27.007  21.928  22.745  0.00  0.00     0.048 A 
BRANCH  12  15
ATOM     15  C   UNL d   1     -23.754  23.850  22.664  0.00  0.00    -0.022 A 
ATOM     16  C   UNL d   1     -23.575  24.512  21.449  0.00  0.00     0.012 A 
ATOM     17  C   UNL d   1     -22.318  24.940  21.076  0.00  0.00     0.004 A 
ATOM     18  C   UNL d   1     -21.233  24.715  21.901  0.00  0.00     0.037 A 
ATOM     19  C   UNL d   1     -21.401  24.058  23.113  0.00  0.00     0.069 A 
ATOM     20  C   UNL d   1     -22.660  23.629  23.500  0.00  0.00     0.049 A 
BRANCH  19  21
ATOM     21  O   UNL d   1     -20.331  23.839  23.922  0.00  0.00    -0.351 OA
BRANCH  21  22
ATOM     22  C   UNL d   1     -19.537  24.975  24.268  0.00  0.00     0.171 C 
ATOM     23  C   UNL d   1     -20.273  25.812  25.317  0.00  0.00     0.034 C 
ENDBRANCH  21  22
ENDBRANCH  19  21
ENDBRANCH  12  15
BRANCH  13  24
ATOM     24  C   UNL d   1     -25.065  21.726  21.205  0.00  0.00     0.293 C 
ATOM     25  O   UNL d   1     -24.234  20.858  21.386  0.00  0.00    -0.259 OA
BRANCH  24  26
ATOM     26  O   UNL d   1     -25.371  22.113  19.950  0.00  0.00    -0.322 OA
ATOM     27  C   UNL d   1     -24.267  22.270  19.021  0.00  0.00     0.213 C 
ENDBRANCH  24  26
ENDBRANCH  13  24
ENDBRANCH   6   9
ENDBRANCH   1   5
BRANCH   4  28
ATOM     28  O   UNL d   1     -31.978  22.090  21.580  0.00  0.00    -0.363 OA
ATOM     29  H   UNL d   1     -31.178  22.612  21.433  0.00  0.00     0.217 HD
ENDBRANCH   4  28
BRANCH   4  30
ATOM     30  C   UNL d   1     -33.608  21.173  23.195  0.00  0.00     0.061 C 
ATOM     31  C   UNL d   1     -34.099  20.280  22.054  0.00  0.00     0.012 C 
ENDBRANCH   4  30
TORSDOF 9
ENDMDL
