MODEL 1
REMARK VINA RESULT:     -11.1      0.000      0.000
REMARK  7 active torsions:
REMARK  status: ('A' for Active; 'I' for Inactive)
REMARK    1  A    between atoms: C_4  and  C_5 
REMARK    2  A    between atoms: C_11  and  N_12 
REMARK       I    between atoms: N_12  and  C_13 
REMARK    3  A    between atoms: C_13  and  C_15 
REMARK    4  A    between atoms: C_19  and  N_20 
REMARK    5  A    between atoms: C_31  and  O_32 
REMARK    6  A    between atoms: O_32  and  C_33 
REMARK    7  A    between atoms: C_33  and  C_35 
ROOT
ATOM      1  C   UNL d   1     -24.316  24.457  23.504  0.00  0.00     0.068 A 
ATOM      2  C   UNL d   1     -25.195  24.979  24.460  0.00  0.00     0.064 A 
ATOM      3  C   UNL d   1     -26.448  24.430  24.614  0.00  0.00     0.146 A 
ATOM      4  F   UNL d   1     -27.296  24.935  25.537  0.00  0.00    -0.204 F 
ATOM      5  C   UNL d   1     -26.844  23.353  23.821  0.00  0.00     0.104 A 
ATOM      6  C   UNL d   1     -25.978  22.830  22.871  0.00  0.00     0.073 A 
ATOM      7  C   UNL d   1     -24.718  23.378  22.704  0.00  0.00     0.087 A 
ENDROOT
BRANCH   1   8
ATOM      8  C   UNL d   1     -22.974  25.041  23.337  0.00  0.00     0.259 C 
ATOM      9  N   UNL d   1     -21.910  24.464  23.929  0.00  0.00    -0.322 N 
ATOM     10  H   UNL d   1     -22.037  23.720  24.540  0.00  0.00     0.169 HD
ATOM     11  O   UNL d   1     -22.826  26.041  22.662  0.00  0.00    -0.267 OA
BRANCH   9  12
ATOM     12  C   UNL d   1     -20.620  24.937  23.664  0.00  0.00     0.041 A 
ATOM     13  C   UNL d   1     -20.012  25.828  24.537  0.00  0.00    -0.034 A 
ATOM     14  C   UNL d   1     -20.740  26.289  25.773  0.00  0.00     0.050 C 
ATOM     15  C   UNL d   1     -18.736  26.289  24.274  0.00  0.00     0.025 A 
ATOM     16  C   UNL d   1     -18.069  25.870  23.138  0.00  0.00     0.048 A 
ATOM     17  C   UNL d   1     -18.675  24.987  22.262  0.00  0.00     0.018 A 
ATOM     18  C   UNL d   1     -19.948  24.519  22.522  0.00  0.00     0.031 A 
BRANCH  16  19
ATOM     19  C   UNL d   1     -16.680  26.379  22.851  0.00  0.00     0.417 C 
ATOM     20  F   UNL d   1     -15.939  26.407  24.038  0.00  0.00    -0.166 F 
ATOM     21  F   UNL d   1     -16.053  25.532  21.931  0.00  0.00    -0.166 F 
ATOM     22  F   UNL d   1     -16.757  27.671  22.320  0.00  0.00    -0.166 F 
ENDBRANCH  16  19
ENDBRANCH   9  12
ENDBRANCH   1   8
BRANCH   7  23
ATOM     23  O   UNL d   1     -23.873  22.870  21.770  0.00  0.00    -0.336 OA
BRANCH  23  24
ATOM     24  C   UNL d   1     -23.972  23.402  20.447  0.00  0.00     0.232 C 
ATOM     25  C   UNL d   1     -22.585  23.831  19.966  0.00  0.00     0.049 C 
BRANCH  24  26
ATOM     26  C   UNL d   1     -24.530  22.331  19.509  0.00  0.00     0.413 C 
ATOM     27  F   UNL d   1     -24.587  22.836  18.206  0.00  0.00    -0.168 F 
ATOM     28  F   UNL d   1     -23.697  21.207  19.537  0.00  0.00    -0.168 F 
ATOM     29  F   UNL d   1     -25.816  21.969  19.926  0.00  0.00    -0.168 F 
ENDBRANCH  24  26
ENDBRANCH  23  24
ENDBRANCH   7  23
BRANCH   5  30
ATOM     30  N   UNL d   1     -28.117  22.801  23.983  0.00  0.00    -0.178 N 
ATOM     31  C   UNL d   1     -28.523  22.013  25.004  0.00  0.00     0.351 A 
ATOM     32  N   UNL d   1     -29.814  21.727  24.796  0.00  0.00    -0.280 N 
ATOM     33  O   UNL d   1     -27.841  21.635  25.940  0.00  0.00    -0.244 OA
ATOM     34  C   UNL d   1     -30.205  22.310  23.605  0.00  0.00     0.155 A 
ATOM     35  C   UNL d   1     -30.730  20.950  25.641  0.00  0.00     0.161 C 
ATOM     36  N   UNL d   1     -29.208  22.957  23.114  0.00  0.00    -0.147 NA
ATOM     37  C   UNL d   1     -31.597  22.154  23.037  0.00  0.00     0.248 C 
ATOM     38  O   UNL d   1     -32.446  21.682  24.094  0.00  0.00    -0.382 OA
ATOM     39  C   UNL d   1     -31.932  20.535  24.779  0.00  0.00     0.188 C 
ENDBRANCH   5  30
TORSDOF 7
ENDMDL
