MODEL 1
REMARK VINA RESULT:     -11.2      0.000      0.000
REMARK  5 active torsions:
REMARK  status: ('A' for Active; 'I' for Inactive)
REMARK    1  A    between atoms: C_4  and  C_5 
REMARK    2  A    between atoms: C_5  and  O_7 
REMARK    3  A    between atoms: C_10  and  C_11 
REMARK    4  A    between atoms: C_14  and  O_15 
REMARK    5  A    between atoms: O_15  and  C_16 
ROOT
ATOM      1  C   UNL d   1     -34.595  21.765  21.573  0.00  0.00     0.048 C 
ATOM      2  C   UNL d   1     -33.260  21.788  22.269  0.00  0.00    -0.059 A 
ATOM      3  C   UNL d   1     -33.183  21.465  23.611  0.00  0.00     0.027 A 
ATOM      4  C   UNL d   1     -31.955  21.481  24.270  0.00  0.00     0.069 A 
ATOM      5  C   UNL d   1     -30.788  21.832  23.555  0.00  0.00     0.102 A 
ATOM      6  N   UNL d   1     -29.491  21.932  23.897  0.00  0.00    -0.227 NA
ATOM      7  C   UNL d   1     -28.785  22.302  22.854  0.00  0.00     0.139 A 
ATOM      8  N   UNL d   1     -29.605  22.453  21.770  0.00  0.00    -0.338 N 
ATOM      9  H   UNL d   1     -29.338  22.716  20.876  0.00  0.00     0.167 HD
ATOM     10  C   UNL d   1     -30.889  22.158  22.191  0.00  0.00     0.064 A 
ATOM     11  C   UNL d   1     -32.124  22.133  21.561  0.00  0.00     0.038 A 
ENDROOT
BRANCH   7  12
ATOM     12  C   UNL d   1     -27.323  22.519  22.850  0.00  0.00     0.010 A 
ATOM     13  C   UNL d   1     -26.532  21.941  21.854  0.00  0.00     0.018 A 
ATOM     14  C   UNL d   1     -25.171  22.151  21.850  0.00  0.00     0.038 A 
ATOM     15  C   UNL d   1     -24.583  22.927  22.842  0.00  0.00     0.077 A 
ATOM     16  C   UNL d   1     -25.366  23.503  23.834  0.00  0.00     0.038 A 
ATOM     17  C   UNL d   1     -26.729  23.303  23.841  0.00  0.00     0.018 A 
BRANCH  15  18
ATOM     18  O   UNL d   1     -23.239  23.126  22.838  0.00  0.00    -0.292 OA
BRANCH  18  19
ATOM     19  C   UNL d   1     -22.769  24.309  23.307  0.00  0.00     0.169 A 
ATOM     20  N   UNL d   1     -21.739  24.322  24.136  0.00  0.00    -0.237 NA
ATOM     21  C   UNL d   1     -21.251  25.450  24.617  0.00  0.00     0.119 A 
ATOM     22  C   UNL d   1     -21.802  26.666  24.266  0.00  0.00     0.019 A 
ATOM     23  C   UNL d   1     -22.888  26.694  23.402  0.00  0.00     0.006 A 
ATOM     24  C   UNL d   1     -23.374  25.496  22.911  0.00  0.00     0.058 A 
ENDBRANCH  18  19
ENDBRANCH  15  18
ENDBRANCH   7  12
BRANCH   4  25
ATOM     25  C   UNL d   1     -31.874  21.136  25.699  0.00  0.00     0.178 C 
ATOM     26  O   UNL d   1     -32.553  20.233  26.146  0.00  0.00    -0.646 OA
BRANCH  25  27
ATOM     27  O   UNL d   1     -31.047  21.823  26.512  0.00  0.00    -0.773 OA
ATOM     28  H   UNL d   1     -30.747  22.690  26.202  0.00  0.00     0.167 HD
ENDBRANCH  25  27
ENDBRANCH   4  25
TORSDOF 5
ENDMDL
