MODEL 1
REMARK VINA RESULT:     -10.9      0.000      0.000
REMARK  4 active torsions:
REMARK  status: ('A' for Active; 'I' for Inactive)
REMARK    1  A    between atoms: C_2  and  O_3 
REMARK    2  A    between atoms: C_2  and  C_4 
REMARK    3  A    between atoms: C_6  and  C_7 
REMARK    4  A    between atoms: C_10  and  N_11 
ROOT
ATOM      1  C   UNL d   1     -30.499  21.429  24.590  0.00  0.00     0.052 A 
ATOM      2  C   UNL d   1     -29.157  21.728  24.400  0.00  0.00     0.051 A 
ATOM      3  C   UNL d   1     -28.721  22.168  23.141  0.00  0.00     0.068 A 
ATOM      4  N   UNL d   1     -29.543  22.311  22.123  0.00  0.00    -0.247 NA
ATOM      5  C   UNL d   1     -30.847  22.046  22.215  0.00  0.00     0.068 A 
ATOM      6  C   UNL d   1     -31.700  22.206  21.108  0.00  0.00     0.032 A 
ATOM      7  C   UNL d   1     -33.027  21.928  21.234  0.00  0.00     0.002 A 
ATOM      8  C   UNL d   1     -33.557  21.484  22.443  0.00  0.00     0.001 A 
ATOM      9  C   UNL d   1     -32.761  21.316  23.536  0.00  0.00     0.015 A 
ATOM     10  C   UNL d   1     -31.392  21.593  23.443  0.00  0.00     0.010 A 
ENDROOT
BRANCH   3  11
ATOM     11  C   UNL d   1     -27.285  22.484  22.952  0.00  0.00    -0.007 A 
ATOM     12  C   UNL d   1     -26.670  23.446  23.754  0.00  0.00     0.016 A 
ATOM     13  C   UNL d   1     -25.334  23.738  23.576  0.00  0.00     0.031 A 
ATOM     14  C   UNL d   1     -24.602  23.075  22.599  0.00  0.00     0.039 A 
ATOM     15  C   UNL d   1     -25.211  22.116  21.799  0.00  0.00     0.031 A 
ATOM     16  C   UNL d   1     -26.545  21.816  21.976  0.00  0.00     0.016 A 
BRANCH  14  17
ATOM     17  N   UNL d   1     -23.244  23.373  22.421  0.00  0.00    -0.315 N 
ATOM     18  C   UNL d   1     -22.675  23.912  21.311  0.00  0.00     0.214 A 
ATOM     19  N   UNL d   1     -21.393  24.041  21.522  0.00  0.00    -0.254 NA
ATOM     20  C   UNL d   1     -21.099  23.595  22.752  0.00  0.00     0.135 A 
ATOM     21  C   UNL d   1     -22.240  23.178  23.333  0.00  0.00     0.117 A 
ENDBRANCH  14  17
ENDBRANCH   3  11
BRANCH   1  22
ATOM     22  C   UNL d   1     -31.004  20.961  25.898  0.00  0.00     0.177 C 
ATOM     23  O   UNL d   1     -31.799  21.639  26.519  0.00  0.00    -0.646 OA
BRANCH  22  24
ATOM     24  O   UNL d   1     -30.584  19.785  26.401  0.00  0.00    -0.773 OA
ATOM     25  H   UNL d   1     -30.850  19.574  27.307  0.00  0.00     0.167 HD
ENDBRANCH  22  24
ENDBRANCH   1  22
TORSDOF 4
ENDMDL
