MODEL 1
REMARK VINA RESULT:     -10.5      0.000      0.000
REMARK  7 active torsions:
REMARK  status: ('A' for Active; 'I' for Inactive)
REMARK    1  A    between atoms: C_2  and  C_3 
REMARK    2  A    between atoms: C_3  and  C_4 
REMARK    3  A    between atoms: C_4  and  O_6 
REMARK    4  A    between atoms: O_6  and  C_7 
REMARK    5  A    between atoms: C_9  and  N_10 
REMARK    6  A    between atoms: C_23  and  C_24 
REMARK       I    between atoms: C_24  and  N_26 
REMARK    7  A    between atoms: N_26  and  C_27 
ROOT
ATOM      1  C   UNL d   1     -26.168  23.231  23.306  0.00  0.00     0.087 A 
ATOM      2  C   UNL d   1     -27.541  23.076  23.377  0.00  0.00     0.073 A 
ATOM      3  C   UNL d   1     -28.193  22.237  22.485  0.00  0.00     0.104 A 
ATOM      4  C   UNL d   1     -27.470  21.555  21.506  0.00  0.00     0.146 A 
ATOM      5  F   UNL d   1     -28.112  20.744  20.637  0.00  0.00    -0.204 F 
ATOM      6  C   UNL d   1     -26.105  21.706  21.424  0.00  0.00     0.064 A 
ATOM      7  C   UNL d   1     -25.438  22.546  22.323  0.00  0.00     0.068 A 
ENDROOT
BRANCH   7   8
ATOM      8  C   UNL d   1     -23.978  22.710  22.239  0.00  0.00     0.259 C 
ATOM      9  O   UNL d   1     -23.248  21.750  22.392  0.00  0.00    -0.267 OA
ATOM     10  N   UNL d   1     -23.449  23.925  21.992  0.00  0.00    -0.322 N 
ATOM     11  H   UNL d   1     -24.030  24.676  21.789  0.00  0.00     0.169 HD
BRANCH  10  12
ATOM     12  C   UNL d   1     -22.062  24.106  22.028  0.00  0.00     0.041 A 
ATOM     13  C   UNL d   1     -21.361  24.349  20.855  0.00  0.00    -0.032 A 
ATOM     14  C   UNL d   1     -19.992  24.532  20.894  0.00  0.00     0.051 A 
ATOM     15  C   UNL d   1     -22.094  24.420  19.540  0.00  0.00     0.050 C 
ATOM     16  C   UNL d   1     -19.318  24.462  22.101  0.00  0.00     0.117 A 
ATOM     17  C   UNL d   1     -20.015  24.214  23.272  0.00  0.00     0.044 A 
ATOM     18  F   UNL d   1     -17.979  24.636  22.136  0.00  0.00    -0.206 F 
ATOM     19  C   UNL d   1     -21.383  24.036  23.238  0.00  0.00     0.033 A 
ENDBRANCH  10  12
ENDBRANCH   7   8
BRANCH   1  20
ATOM     20  O   UNL d   1     -25.529  24.047  24.183  0.00  0.00    -0.345 OA
BRANCH  20  21
ATOM     21  C   UNL d   1     -25.865  25.435  24.141  0.00  0.00     0.124 C 
ATOM     22  C   UNL d   1     -26.282  25.902  25.536  0.00  0.00     0.040 C 
BRANCH  21  23
ATOM     23  C   UNL d   1     -24.650  26.240  23.676  0.00  0.00     0.032 C 
BRANCH  23  24
ATOM     24  C   UNL d   1     -23.588  26.242  24.778  0.00  0.00    -0.002 C 
ATOM     25  C   UNL d   1     -22.431  27.155  24.370  0.00  0.00     0.005 C 
ENDBRANCH  23  24
ENDBRANCH  21  23
ENDBRANCH  20  21
ENDBRANCH   1  20
BRANCH   3  26
ATOM     26  N   UNL d   1     -29.579  22.078  22.562  0.00  0.00    -0.178 N 
ATOM     27  C   UNL d   1     -30.282  21.719  23.659  0.00  0.00     0.351 A 
ATOM     28  N   UNL d   1     -31.581  21.710  23.316  0.00  0.00    -0.284 N 
ATOM     29  O   UNL d   1     -29.823  21.453  24.755  0.00  0.00    -0.244 OA
ATOM     30  C   UNL d   1     -31.679  22.028  21.978  0.00  0.00     0.131 A 
ATOM     31  C   UNL d   1     -32.731  21.436  24.185  0.00  0.00     0.135 C 
ATOM     32  N   UNL d   1     -30.497  22.257  21.517  0.00  0.00    -0.149 NA
ATOM     33  C   UNL d   1     -32.986  22.079  21.221  0.00  0.00     0.081 C 
ATOM     34  C   UNL d   1     -34.124  22.179  22.246  0.00  0.00     0.009 C 
ATOM     35  C   UNL d   1     -33.938  21.089  23.306  0.00  0.00     0.021 C 
ENDBRANCH   3  26
TORSDOF 7
ENDMDL
