MODEL 1
REMARK VINA RESULT:      -9.7      0.000      0.000
REMARK  7 active torsions:
REMARK  status: ('A' for Active; 'I' for Inactive)
REMARK    1  A    between atoms: C_2  and  O_3 
REMARK    2  A    between atoms: C_4  and  C_7 
REMARK       I    between atoms: C_7  and  N_9 
REMARK    3  A    between atoms: N_9  and  C_10 
REMARK    4  A    between atoms: C_12  and  O_13 
REMARK    5  A    between atoms: O_13  and  C_14 
REMARK    6  A    between atoms: C_17  and  C_18 
REMARK       I    between atoms: C_18  and  N_20 
REMARK    7  A    between atoms: N_20  and  C_21 
ROOT
ATOM      1  C   UNL d   1     -33.496  20.066  25.624  0.00  0.00     0.077 C 
ATOM      2  C   UNL d   1     -32.194  20.789  25.394  0.00  0.00     0.065 C 
ATOM      3  C   UNL d   1     -31.875  21.238  24.147  0.00  0.00     0.141 C 
ATOM      4  C   UNL d   1     -32.778  21.024  23.056  0.00  0.00     0.107 C 
ATOM      5  N   UNL d   1     -33.494  20.854  22.190  0.00  0.00    -0.191 NA
ENDROOT
BRANCH   3   6
ATOM      6  C   UNL d   1     -30.606  21.944  23.923  0.00  0.00     0.269 C 
ATOM      7  O   UNL d   1     -30.608  23.071  23.464  0.00  0.00    -0.266 OA
ATOM      8  N   UNL d   1     -29.438  21.343  24.227  0.00  0.00    -0.320 N 
ATOM      9  H   UNL d   1     -29.432  20.426  24.544  0.00  0.00     0.169 HD
BRANCH   8  10
ATOM     10  C   UNL d   1     -28.237  22.039  24.086  0.00  0.00     0.076 A 
ATOM     11  C   UNL d   1     -27.629  22.607  25.205  0.00  0.00     0.144 A 
ATOM     12  C   UNL d   1     -26.443  23.296  25.072  0.00  0.00     0.064 A 
ATOM     13  F   UNL d   1     -28.203  22.482  26.421  0.00  0.00    -0.204 F 
ATOM     14  C   UNL d   1     -25.845  23.421  23.814  0.00  0.00     0.068 A 
ATOM     15  C   UNL d   1     -26.463  22.854  22.690  0.00  0.00     0.087 A 
ATOM     16  C   UNL d   1     -27.653  22.164  22.832  0.00  0.00     0.070 A 
BRANCH  14  17
ATOM     17  C   UNL d   1     -24.574  24.152  23.669  0.00  0.00     0.259 C 
ATOM     18  O   UNL d   1     -24.555  25.363  23.774  0.00  0.00    -0.267 OA
ATOM     19  N   UNL d   1     -23.434  23.479  23.419  0.00  0.00    -0.321 N 
ATOM     20  H   UNL d   1     -23.438  22.508  23.399  0.00  0.00     0.169 HD
BRANCH  19  21
ATOM     21  C   UNL d   1     -22.245  24.178  23.189  0.00  0.00     0.056 A 
ATOM     22  C   UNL d   1     -21.946  24.643  21.914  0.00  0.00     0.060 A 
ATOM     23  C   UNL d   1     -20.772  25.338  21.691  0.00  0.00     0.026 A 
ATOM     24 CL   UNL d   1     -23.048  24.357  20.604  0.00  0.00    -0.082 Cl
ATOM     25  C   UNL d   1     -19.892  25.561  22.734  0.00  0.00     0.002 A 
ATOM     26  C   UNL d   1     -20.184  25.095  24.002  0.00  0.00     0.002 A 
ATOM     27  C   UNL d   1     -21.358  24.405  24.233  0.00  0.00     0.031 A 
ENDBRANCH  19  21
ENDBRANCH  14  17
BRANCH  15  28
ATOM     28  O   UNL d   1     -25.892  22.977  21.465  0.00  0.00    -0.346 OA
BRANCH  28  29
ATOM     29  C   UNL d   1     -25.609  21.769  20.755  0.00  0.00     0.120 C 
ATOM     30  C   UNL d   1     -24.549  20.969  21.514  0.00  0.00     0.040 C 
ATOM     31  C   UNL d   1     -25.090  22.108  19.356  0.00  0.00     0.040 C 
ENDBRANCH  28  29
ENDBRANCH  15  28
ENDBRANCH   8  10
ENDBRANCH   3   6
BRANCH   2  32
ATOM     32  O   UNL d   1     -31.347  20.990  26.418  0.00  0.00    -0.364 OA
ATOM     33  H   UNL d   1     -30.456  21.295  26.198  0.00  0.00     0.217 HD
ENDBRANCH   2  32
TORSDOF 7
ENDMDL
