MODEL 1
REMARK VINA RESULT:      -9.8      0.000      0.000
REMARK  8 active torsions:
REMARK  status: ('A' for Active; 'I' for Inactive)
REMARK    1  A    between atoms: C_2  and  C_3 
REMARK    2  A    between atoms: C_3  and  C_4 
REMARK    3  A    between atoms: C_4  and  O_6 
REMARK    4  A    between atoms: O_6  and  C_7 
REMARK    5  A    between atoms: C_9  and  N_10 
REMARK    6  A    between atoms: C_12  and  C_13 
REMARK    7  A    between atoms: C_22  and  C_23 
REMARK       I    between atoms: C_23  and  N_25 
REMARK    8  A    between atoms: N_25  and  C_26 
ROOT
ATOM      1  C   UNL d   1     -26.334  23.167  23.393  0.00  0.00     0.087 A 
ATOM      2  C   UNL d   1     -27.708  23.029  23.489  0.00  0.00     0.073 A 
ATOM      3  C   UNL d   1     -28.387  22.205  22.603  0.00  0.00     0.104 A 
ATOM      4  C   UNL d   1     -27.690  21.512  21.613  0.00  0.00     0.146 A 
ATOM      5  F   UNL d   1     -28.358  20.711  20.754  0.00  0.00    -0.204 F 
ATOM      6  C   UNL d   1     -26.325  21.647  21.505  0.00  0.00     0.064 A 
ATOM      7  C   UNL d   1     -25.631  22.471  22.398  0.00  0.00     0.068 A 
ENDROOT
BRANCH   7   8
ATOM      8  C   UNL d   1     -24.169  22.613  22.290  0.00  0.00     0.259 C 
ATOM      9  O   UNL d   1     -23.468  21.624  22.189  0.00  0.00    -0.267 OA
ATOM     10  N   UNL d   1     -23.608  23.838  22.301  0.00  0.00    -0.320 N 
ATOM     11  H   UNL d   1     -24.157  24.621  22.464  0.00  0.00     0.169 HD
BRANCH  10  12
ATOM     12  C   UNL d   1     -22.234  23.982  22.079  0.00  0.00     0.080 A 
ATOM     13  C   UNL d   1     -21.339  23.838  23.133  0.00  0.00     0.143 A 
ATOM     14  C   UNL d   1     -19.982  23.981  22.910  0.00  0.00     0.045 A 
ATOM     15  F   UNL d   1     -21.795  23.560  24.375  0.00  0.00    -0.204 F 
ATOM     16  C   UNL d   1     -19.515  24.266  21.639  0.00  0.00     0.004 A 
ATOM     17  C   UNL d   1     -20.405  24.415  20.591  0.00  0.00     0.009 A 
ATOM     18  C   UNL d   1     -21.761  24.268  20.805  0.00  0.00    -0.032 A 
ATOM     19  C   UNL d   1     -22.728  24.425  19.660  0.00  0.00     0.050 C 
ENDBRANCH  10  12
ENDBRANCH   7   8
BRANCH   1  20
ATOM     20  O   UNL d   1     -25.669  23.972  24.259  0.00  0.00    -0.345 OA
BRANCH  20  21
ATOM     21  C   UNL d   1     -26.004  25.361  24.243  0.00  0.00     0.124 C 
ATOM     22  C   UNL d   1     -26.351  25.818  25.662  0.00  0.00     0.040 C 
BRANCH  21  23
ATOM     23  C   UNL d   1     -24.813  26.168  23.724  0.00  0.00     0.032 C 
BRANCH  23  24
ATOM     24  C   UNL d   1     -23.727  26.223  24.800  0.00  0.00    -0.002 C 
ATOM     25  C   UNL d   1     -22.526  27.011  24.272  0.00  0.00     0.005 C 
ENDBRANCH  23  24
ENDBRANCH  21  23
ENDBRANCH  20  21
ENDBRANCH   1  20
BRANCH   3  26
ATOM     26  N   UNL d   1     -29.773  22.067  22.703  0.00  0.00    -0.178 N 
ATOM     27  C   UNL d   1     -30.466  21.733  23.812  0.00  0.00     0.351 A 
ATOM     28  N   UNL d   1     -31.773  21.715  23.482  0.00  0.00    -0.289 N 
ATOM     29  O   UNL d   1     -29.997  21.493  24.910  0.00  0.00    -0.244 OA
ATOM     30  C   UNL d   1     -31.886  22.033  22.151  0.00  0.00     0.130 A 
ATOM     31  C   UNL d   1     -32.882  21.402  24.386  0.00  0.00     0.162 C 
ATOM     32  N   UNL d   1     -30.703  22.247  21.670  0.00  0.00    -0.149 NA
BRANCH  30  33
ATOM     33  C   UNL d   1     -33.176  22.120  21.375  0.00  0.00     0.076 C 
ATOM     34  C   UNL d   1     -33.716  20.710  21.125  0.00  0.00     0.013 C 
ENDBRANCH  30  33
ENDBRANCH   3  26
TORSDOF 8
ENDMDL
