MODEL 1
REMARK VINA RESULT:      -9.0      0.000      0.000
REMARK  7 active torsions:
REMARK  status: ('A' for Active; 'I' for Inactive)
REMARK    1  A    between atoms: C_7  and  N_8 
REMARK       I    between atoms: N_8  and  C_9 
REMARK    2  A    between atoms: C_9  and  C_11 
REMARK    3  A    between atoms: C_15  and  N_16 
REMARK    4  A    between atoms: C_27  and  O_28 
REMARK    5  A    between atoms: O_28  and  C_29 
REMARK    6  A    between atoms: C_29  and  C_31 
REMARK    7  A    between atoms: C_31  and  N_32 
ROOT
ATOM      1  C   UNL d   1     -25.711  22.556  22.207  0.00  0.00     0.068 A 
ATOM      2  C   UNL d   1     -26.323  21.631  21.353  0.00  0.00     0.064 A 
ATOM      3  C   UNL d   1     -27.691  21.479  21.371  0.00  0.00     0.146 A 
ATOM      4  F   UNL d   1     -28.282  20.587  20.547  0.00  0.00    -0.204 F 
ATOM      5  C   UNL d   1     -28.470  22.246  22.239  0.00  0.00     0.104 A 
ATOM      6  C   UNL d   1     -27.872  23.169  23.084  0.00  0.00     0.073 A 
ATOM      7  C   UNL d   1     -26.496  23.325  23.078  0.00  0.00     0.087 A 
ENDROOT
BRANCH   1   8
ATOM      8  C   UNL d   1     -24.248  22.721  22.189  0.00  0.00     0.259 C 
ATOM      9  N   UNL d   1     -23.709  23.957  22.180  0.00  0.00    -0.321 N 
ATOM     10  H   UNL d   1     -24.283  24.735  22.102  0.00  0.00     0.169 HD
ATOM     11  O   UNL d   1     -23.525  21.743  22.184  0.00  0.00    -0.267 OA
BRANCH   9  12
ATOM     12  C   UNL d   1     -22.324  24.117  22.283  0.00  0.00     0.058 A 
ATOM     13  C   UNL d   1     -21.545  24.286  21.141  0.00  0.00    -0.032 A 
ATOM     14  C   UNL d   1     -22.175  24.301  19.771  0.00  0.00     0.050 C 
ATOM     15  C   UNL d   1     -20.178  24.442  21.294  0.00  0.00     0.028 A 
ATOM     16  C   UNL d   1     -19.634  24.423  22.565  0.00  0.00     0.117 A 
ATOM     17  N   UNL d   1     -20.399  24.261  23.627  0.00  0.00    -0.271 NA
ATOM     18  C   UNL d   1     -21.705  24.115  23.526  0.00  0.00     0.146 A 
ENDBRANCH   9  12
ENDBRANCH   1   8
BRANCH   7  19
ATOM     19  O   UNL d   1     -25.910  24.224  23.908  0.00  0.00    -0.343 OA
BRANCH  19  20
ATOM     20  C   UNL d   1     -26.191  24.098  25.303  0.00  0.00     0.153 C 
ATOM     21  C   UNL d   1     -26.718  25.430  25.839  0.00  0.00     0.042 C 
BRANCH  20  22
ATOM     22  C   UNL d   1     -27.245  23.010  25.517  0.00  0.00     0.303 C 
BRANCH  22  23
ATOM     23  N   UNL d   1     -27.276  22.632  26.936  0.00  0.00     0.082 N 
ATOM     24  C   UNL d   1     -28.622  22.807  27.499  0.00  0.00     0.309 C 
ATOM     25  C   UNL d   1     -26.804  21.254  27.124  0.00  0.00     0.309 C 
ENDBRANCH  22  23
ENDBRANCH  20  22
ENDBRANCH  19  20
ENDBRANCH   7  19
BRANCH   5  26
ATOM     26  N   UNL d   1     -29.858  22.087  22.251  0.00  0.00    -0.178 N 
ATOM     27  C   UNL d   1     -30.620  21.786  23.325  0.00  0.00     0.351 A 
ATOM     28  N   UNL d   1     -31.898  21.754  22.913  0.00  0.00    -0.284 N 
ATOM     29  O   UNL d   1     -30.222  21.581  24.458  0.00  0.00    -0.244 OA
ATOM     30  C   UNL d   1     -31.923  21.999  21.556  0.00  0.00     0.131 A 
ATOM     31  C   UNL d   1     -33.094  21.524  23.732  0.00  0.00     0.135 C 
ATOM     32  N   UNL d   1     -30.717  22.206  21.149  0.00  0.00    -0.149 NA
ATOM     33  C   UNL d   1     -33.187  22.004  20.728  0.00  0.00     0.081 C 
ATOM     34  C   UNL d   1     -34.379  22.157  21.682  0.00  0.00     0.009 C 
ATOM     35  C   UNL d   1     -34.251  21.126  22.809  0.00  0.00     0.021 C 
ENDBRANCH   5  26
TORSDOF 7
ENDMDL
