MODEL 1
REMARK VINA RESULT:     -12.8      0.000      0.000
REMARK  4 active torsions:
REMARK  status: ('A' for Active; 'I' for Inactive)
REMARK    1  A    between atoms: O_2  and  N_3 
REMARK       I    between atoms: N_3  and  C_4 
REMARK    2  A    between atoms: C_4  and  C_6 
REMARK    3  A    between atoms: C_9  and  C_10 
REMARK    4  A    between atoms: C_13  and  C_14 
ROOT
ATOM      1  C   UNL d   1     -30.061  21.649  24.421  0.00  0.00     0.054 A 
ATOM      2  C   UNL d   1     -28.734  22.044  24.347  0.00  0.00    -0.016 A 
ATOM      3  C   UNL d   1     -27.840  21.939  25.556  0.00  0.00     0.052 C 
ATOM      4  C   UNL d   1     -28.229  22.539  23.135  0.00  0.00     0.074 A 
ATOM      5  N   UNL d   1     -28.976  22.653  22.057  0.00  0.00    -0.247 NA
ATOM      6  C   UNL d   1     -30.263  22.303  22.039  0.00  0.00     0.069 A 
ATOM      7  C   UNL d   1     -31.036  22.436  20.870  0.00  0.00     0.035 A 
ATOM      8  C   UNL d   1     -32.345  22.072  20.883  0.00  0.00     0.044 A 
ATOM      9  C   UNL d   1     -32.941  21.563  22.038  0.00  0.00     0.117 A 
ATOM     10  F   UNL d   1     -34.244  21.209  22.017  0.00  0.00    -0.206 F 
ATOM     11  C   UNL d   1     -32.221  21.419  23.189  0.00  0.00     0.057 A 
ATOM     12  C   UNL d   1     -30.872  21.786  23.210  0.00  0.00     0.012 A 
ENDROOT
BRANCH   4  13
ATOM     13  C   UNL d   1     -26.807  22.951  23.067  0.00  0.00    -0.007 A 
ATOM     14  C   UNL d   1     -26.378  24.090  23.749  0.00  0.00     0.014 A 
ATOM     15  C   UNL d   1     -25.056  24.473  23.685  0.00  0.00     0.013 A 
ATOM     16  C   UNL d   1     -24.147  23.723  22.938  0.00  0.00    -0.023 A 
ATOM     17  C   UNL d   1     -24.577  22.585  22.256  0.00  0.00     0.013 A 
ATOM     18  C   UNL d   1     -25.897  22.199  22.324  0.00  0.00     0.014 A 
BRANCH  16  19
ATOM     19  C   UNL d   1     -22.726  24.136  22.869  0.00  0.00     0.013 A 
ATOM     20  C   UNL d   1     -22.246  24.812  21.746  0.00  0.00     0.127 A 
ATOM     21  C   UNL d   1     -20.919  25.195  21.689  0.00  0.00     0.043 A 
ATOM     22  F   UNL d   1     -23.076  25.092  20.717  0.00  0.00    -0.205 F 
ATOM     23  C   UNL d   1     -20.069  24.911  22.740  0.00  0.00     0.003 A 
ATOM     24  C   UNL d   1     -20.540  24.240  23.856  0.00  0.00     0.001 A 
ATOM     25  C   UNL d   1     -21.863  23.857  23.928  0.00  0.00     0.015 A 
ENDBRANCH  16  19
ENDBRANCH   4  13
BRANCH   1  26
ATOM     26  C   UNL d   1     -30.637  21.117  25.675  0.00  0.00     0.276 C 
ATOM     27  N   UNL d   1     -30.662  19.787  25.893  0.00  0.00    -0.231 N 
ATOM     28  H   UNL d   1     -30.302  19.180  25.229  0.00  0.00     0.197 HD
ATOM     29  O   UNL d   1     -31.089  21.878  26.508  0.00  0.00    -0.265 OA
BRANCH  27  30
ATOM     30  O   UNL d   1     -31.214  19.277  27.093  0.00  0.00    -0.282 OA
ATOM     31  C   UNL d   1     -31.863  18.013  26.943  0.00  0.00     0.237 C 
ENDBRANCH  27  30
ENDBRANCH   1  26
TORSDOF 4
ENDMDL
