MODEL 1
REMARK VINA RESULT:     -10.7      0.000      0.000
REMARK  7 active torsions:
REMARK  status: ('A' for Active; 'I' for Inactive)
REMARK    1  A    between atoms: C_2  and  O_3 
REMARK    2  A    between atoms: O_3  and  C_4 
REMARK    3  A    between atoms: C_8  and  C_9 
REMARK    4  A    between atoms: C_12  and  N_13 
REMARK    5  A    between atoms: N_13  and  C_14 
REMARK    6  A    between atoms: C_20  and  C_21 
REMARK    7  A    between atoms: C_21  and  O_23 
ROOT
ATOM      1  C   UNL d   1     -27.457  22.230  23.070  0.00  0.00     0.067 A 
ATOM      2  C   UNL d   1     -26.624  23.166  23.681  0.00  0.00     0.035 A 
ATOM      3  C   UNL d   1     -25.326  23.310  23.228  0.00  0.00     0.033 A 
ATOM      4  C   UNL d   1     -24.902  22.516  22.163  0.00  0.00     0.050 A 
ATOM      5  C   UNL d   1     -25.789  21.602  21.603  0.00  0.00     0.146 A 
ATOM      6  N   UNL d   1     -27.017  21.487  22.063  0.00  0.00    -0.258 NA
ENDROOT
BRANCH   4   7
ATOM      7  N   UNL d   1     -23.601  22.631  21.668  0.00  0.00    -0.354 N 
ATOM      8  H   UNL d   1     -23.324  22.101  20.905  0.00  0.00     0.166 HD
BRANCH   7   9
ATOM      9  C   UNL d   1     -22.703  23.501  22.272  0.00  0.00     0.049 A 
ATOM     10  C   UNL d   1     -22.156  24.569  21.543  0.00  0.00     0.064 A 
ATOM     11  C   UNL d   1     -21.253  25.437  22.164  0.00  0.00     0.027 A 
ATOM     12  C   UNL d   1     -20.908  25.241  23.483  0.00  0.00    -0.061 A 
ATOM     13  C   UNL d   1     -21.455  24.189  24.202  0.00  0.00     0.009 A 
ATOM     14  C   UNL d   1     -19.935  26.178  24.150  0.00  0.00     0.048 C 
ATOM     15  C   UNL d   1     -22.342  23.320  23.602  0.00  0.00     0.031 A 
BRANCH  10  16
ATOM     16  C   UNL d   1     -22.530  24.773  20.133  0.00  0.00     0.178 C 
ATOM     17  O   UNL d   1     -21.790  25.386  19.391  0.00  0.00    -0.646 OA
BRANCH  16  18
ATOM     18  O   UNL d   1     -23.694  24.280  19.668  0.00  0.00    -0.773 OA
ATOM     19  H   UNL d   1     -24.155  23.639  20.227  0.00  0.00     0.167 HD
ENDBRANCH  16  18
ENDBRANCH  10  16
ENDBRANCH   7   9
ENDBRANCH   4   7
BRANCH   1  20
ATOM     20  C   UNL d   1     -28.850  22.064  23.551  0.00  0.00    -0.005 A 
ATOM     21  C   UNL d   1     -29.093  21.665  24.865  0.00  0.00     0.014 A 
ATOM     22  C   UNL d   1     -30.391  21.512  25.310  0.00  0.00     0.004 A 
ATOM     23  C   UNL d   1     -31.451  21.751  24.457  0.00  0.00     0.037 A 
ATOM     24  C   UNL d   1     -31.218  22.148  23.147  0.00  0.00     0.069 A 
ATOM     25  C   UNL d   1     -29.920  22.309  22.693  0.00  0.00     0.050 A 
BRANCH  24  26
ATOM     26  O   UNL d   1     -32.265  22.382  22.311  0.00  0.00    -0.351 OA
BRANCH  26  27
ATOM     27  C   UNL d   1     -33.535  21.859  22.701  0.00  0.00     0.171 C 
ATOM     28  C   UNL d   1     -33.863  20.630  21.852  0.00  0.00     0.034 C 
ENDBRANCH  26  27
ENDBRANCH  24  26
ENDBRANCH   1  20
TORSDOF 7
ENDMDL
