MODEL 1
REMARK VINA RESULT:     -10.1      0.000      0.000
REMARK  6 active torsions:
REMARK  status: ('A' for Active; 'I' for Inactive)
REMARK    1  A    between atoms: C_2  and  C_4 
REMARK    2  A    between atoms: N_6  and  C_7 
REMARK    3  A    between atoms: C_20  and  N_21 
REMARK    4  A    between atoms: C_23  and  C_24 
REMARK    5  A    between atoms: C_24  and  O_25 
REMARK    6  A    between atoms: N_26  and  C_27 
ROOT
ATOM      1  C   UNL d   1     -25.707  24.074  23.585  0.00  0.00     0.015 A 
ATOM      2  C   UNL d   1     -24.405  24.237  23.235  0.00  0.00     0.115 A 
ATOM      3  N   UNL d   1     -23.858  23.610  22.156  0.00  0.00    -0.287 N 
ATOM      4  C   UNL d   1     -24.571  22.786  21.364  0.00  0.00     0.264 A 
ATOM      5  O   UNL d   1     -24.044  22.244  20.409  0.00  0.00    -0.267 OA
ATOM      6  C   UNL d   1     -25.986  22.546  21.660  0.00  0.00     0.065 A 
ATOM      7  C   UNL d   1     -26.775  21.701  20.872  0.00  0.00     0.066 A 
ATOM      8  C   UNL d   1     -28.089  21.533  21.221  0.00  0.00     0.165 A 
ATOM      9  F   UNL d   1     -28.889  20.725  20.489  0.00  0.00    -0.202 F 
ATOM     10  C   UNL d   1     -28.601  22.201  22.338  0.00  0.00     0.195 A 
ATOM     11  N   UNL d   1     -27.843  23.001  23.070  0.00  0.00    -0.225 NA
ATOM     12  C   UNL d   1     -26.564  23.192  22.775  0.00  0.00     0.087 A 
ENDROOT
BRANCH  10  13
ATOM     13  N   UNL d   1     -29.938  22.024  22.684  0.00  0.00    -0.159 N 
ATOM     14  C   UNL d   1     -30.407  21.629  23.886  0.00  0.00     0.352 A 
ATOM     15  N   UNL d   1     -31.752  21.586  23.799  0.00  0.00    -0.283 N 
ATOM     16  O   UNL d   1     -29.740  21.364  24.869  0.00  0.00    -0.244 OA
ATOM     17  C   UNL d   1     -32.115  21.959  22.529  0.00  0.00     0.154 A 
ATOM     18  N   UNL d   1     -31.046  22.225  21.850  0.00  0.00    -0.145 NA
BRANCH  15  19
ATOM     19  C   UNL d   1     -32.670  21.206  24.876  0.00  0.00     0.131 C 
ATOM     20  C   UNL d   1     -32.783  19.681  24.935  0.00  0.00     0.027 C 
ENDBRANCH  15  19
BRANCH  17  21
ATOM     21  C   UNL d   1     -33.528  22.046  22.010  0.00  0.00     0.244 C 
BRANCH  21  22
ATOM     22  O   UNL d   1     -33.507  22.119  20.583  0.00  0.00    -0.393 OA
ATOM     23  H   UNL d   1     -34.131  22.758  20.212  0.00  0.00     0.209 HD
ENDBRANCH  21  22
ENDBRANCH  17  21
ENDBRANCH  10  13
BRANCH   1  24
ATOM     24  C   UNL d   1     -26.257  24.774  24.762  0.00  0.00    -0.057 C 
ATOM     25  C   UNL d   1     -26.088  26.084  24.895  0.00  0.00     0.019 C 
ATOM     26  C   UNL d   1     -27.010  24.002  25.814  0.00  0.00     0.048 C 
ENDBRANCH   1  24
BRANCH   3  27
ATOM     27  C   UNL d   1     -22.507  23.828  21.860  0.00  0.00     0.048 A 
ATOM     28  C   UNL d   1     -21.524  23.402  22.743  0.00  0.00    -0.035 A 
ATOM     29  C   UNL d   1     -20.192  23.618  22.448  0.00  0.00     0.009 A 
ATOM     30  C   UNL d   1     -21.909  22.704  24.022  0.00  0.00     0.050 C 
ATOM     31  C   UNL d   1     -19.838  24.258  21.276  0.00  0.00     0.001 A 
ATOM     32  C   UNL d   1     -20.814  24.684  20.393  0.00  0.00     0.002 A 
ATOM     33  C   UNL d   1     -22.147  24.466  20.680  0.00  0.00     0.030 A 
ENDBRANCH   3  27
TORSDOF 6
ENDMDL
