MODEL 1
REMARK VINA RESULT:     -10.8      0.000      0.000
REMARK  7 active torsions:
REMARK  status: ('A' for Active; 'I' for Inactive)
REMARK    1  A    between atoms: C_2  and  C_3 
REMARK    2  A    between atoms: C_3  and  O_4 
REMARK    3  A    between atoms: C_5  and  C_8 
REMARK       I    between atoms: C_8  and  N_10 
REMARK    4  A    between atoms: N_10  and  C_11 
REMARK    5  A    between atoms: C_14  and  C_15 
REMARK    6  A    between atoms: C_23  and  C_24 
REMARK    7  A    between atoms: C_24  and  O_26 
ROOT
ATOM      1  C   UNL d   1     -32.276  21.790  22.678  0.00  0.00     0.069 C 
ATOM      2  C   UNL d   1     -31.356  21.951  23.671  0.00  0.00     0.141 C 
ATOM      3  C   UNL d   1     -31.708  21.654  25.027  0.00  0.00     0.107 C 
ATOM      4  N   UNL d   1     -31.987  21.419  26.103  0.00  0.00    -0.191 NA
ENDROOT
BRANCH   2   5
ATOM      5  C   UNL d   1     -30.003  22.429  23.350  0.00  0.00     0.269 C 
ATOM      6  O   UNL d   1     -29.830  23.172  22.403  0.00  0.00    -0.266 OA
ATOM      7  N   UNL d   1     -28.956  22.042  24.104  0.00  0.00    -0.322 N 
ATOM      8  H   UNL d   1     -29.101  21.502  24.897  0.00  0.00     0.169 HD
BRANCH   7   9
ATOM      9  C   UNL d   1     -27.658  22.420  23.744  0.00  0.00     0.036 A 
ATOM     10  C   UNL d   1     -27.058  21.852  22.632  0.00  0.00     0.048 A 
ATOM     11  C   UNL d   1     -25.763  22.228  22.272  0.00  0.00     0.052 A 
ATOM     12  C   UNL d   1     -25.076  23.181  23.047  0.00  0.00    -0.009 A 
ATOM     13  C   UNL d   1     -25.692  23.738  24.166  0.00  0.00     0.015 A 
ATOM     14  C   UNL d   1     -26.974  23.362  24.506  0.00  0.00     0.030 A 
BRANCH  11  15
ATOM     15  C   UNL d   1     -25.117  21.629  21.090  0.00  0.00     0.293 C 
ATOM     16  O   UNL d   1     -24.291  20.750  21.229  0.00  0.00    -0.259 OA
BRANCH  15  17
ATOM     17  O   UNL d   1     -25.445  22.057  19.855  0.00  0.00    -0.322 OA
ATOM     18  C   UNL d   1     -24.349  22.387  18.961  0.00  0.00     0.213 C 
ENDBRANCH  15  17
ENDBRANCH  11  15
BRANCH  12  19
ATOM     19  C   UNL d   1     -23.701  23.588  22.677  0.00  0.00    -0.022 A 
ATOM     20  C   UNL d   1     -23.481  24.350  21.530  0.00  0.00     0.057 A 
ATOM     21  C   UNL d   1     -22.195  24.726  21.190  0.00  0.00     0.155 A 
ATOM     22  C   UNL d   1     -21.126  24.347  21.988  0.00  0.00     0.154 A 
ATOM     23  F   UNL d   1     -21.981  25.465  20.079  0.00  0.00    -0.203 F 
ATOM     24  C   UNL d   1     -21.341  23.589  23.127  0.00  0.00     0.046 A 
ATOM     25  F   UNL d   1     -19.870  24.716  21.652  0.00  0.00    -0.203 F 
ATOM     26  C   UNL d   1     -22.620  23.204  23.472  0.00  0.00     0.015 A 
ENDBRANCH  12  19
ENDBRANCH   7   9
ENDBRANCH   2   5
BRANCH   1  27
ATOM     27  C   UNL d   1     -33.663  21.301  23.007  0.00  0.00     0.061 C 
ATOM     28  C   UNL d   1     -34.075  20.222  22.003  0.00  0.00     0.012 C 
ENDBRANCH   1  27
BRANCH   1  29
ATOM     29  O   UNL d   1     -31.946  22.067  21.405  0.00  0.00    -0.363 OA
ATOM     30  H   UNL d   1     -31.008  22.026  21.176  0.00  0.00     0.217 HD
ENDBRANCH   1  29
TORSDOF 7
ENDMDL
