MODEL 1
REMARK VINA RESULT:      -9.1      0.000      0.000
REMARK  7 active torsions:
REMARK  status: ('A' for Active; 'I' for Inactive)
REMARK    1  A    between atoms: O_2  and  C_3 
REMARK    2  A    between atoms: C_9  and  N_10 
REMARK       I    between atoms: N_10  and  C_11 
REMARK    3  A    between atoms: C_11  and  C_13 
REMARK    4  A    between atoms: C_17  and  N_18 
REMARK    5  A    between atoms: C_29  and  O_30 
REMARK    6  A    between atoms: O_30  and  C_31 
REMARK    7  A    between atoms: C_31  and  C_33 
ROOT
ATOM      1  C   UNL d   1     -19.503  25.289  23.266  0.00  0.00     0.068 A 
ATOM      2  C   UNL d   1     -19.882  24.777  22.020  0.00  0.00     0.064 A 
ATOM      3  C   UNL d   1     -21.134  24.226  21.855  0.00  0.00     0.146 A 
ATOM      4  F   UNL d   1     -21.501  23.738  20.651  0.00  0.00    -0.204 F 
ATOM      5  C   UNL d   1     -22.023  24.173  22.928  0.00  0.00     0.104 A 
ATOM      6  C   UNL d   1     -21.653  24.674  24.169  0.00  0.00     0.073 A 
ATOM      7  C   UNL d   1     -20.398  25.229  24.344  0.00  0.00     0.087 A 
ENDROOT
BRANCH   1   8
ATOM      8  C   UNL d   1     -18.168  25.884  23.445  0.00  0.00     0.259 C 
ATOM      9  N   UNL d   1     -17.363  25.450  24.435  0.00  0.00    -0.319 N 
ATOM     10  H   UNL d   1     -17.628  24.692  24.977  0.00  0.00     0.169 HD
ATOM     11  O   UNL d   1     -17.792  26.768  22.698  0.00  0.00    -0.267 OA
BRANCH   9  12
ATOM     12  C   UNL d   1     -16.144  26.095  24.680  0.00  0.00     0.094 A 
ATOM     13  C   UNL d   1     -14.963  25.613  24.118  0.00  0.00     0.191 A 
ATOM     14  N   UNL d   1     -13.812  26.224  24.345  0.00  0.00    -0.235 NA
ATOM     15  C   UNL d   1     -13.736  27.295  25.111  0.00  0.00     0.120 A 
ATOM     16  C   UNL d   1     -14.863  27.826  25.706  0.00  0.00     0.028 A 
ATOM     17  C   UNL d   1     -16.093  27.222  25.492  0.00  0.00    -0.029 A 
ATOM     18  C   UNL d   1     -17.345  27.774  26.125  0.00  0.00     0.050 C 
BRANCH  13  19
ATOM     19  O   UNL d   1     -14.993  24.510  23.328  0.00  0.00    -0.338 OA
ATOM     20  C   UNL d   1     -13.842  23.664  23.348  0.00  0.00     0.211 C 
ENDBRANCH  13  19
ENDBRANCH   9  12
ENDBRANCH   1   8
BRANCH   7  21
ATOM     21  O   UNL d   1     -20.034  25.719  25.557  0.00  0.00    -0.345 OA
BRANCH  21  22
ATOM     22  C   UNL d   1     -20.457  27.047  25.873  0.00  0.00     0.129 C 
ATOM     23  C   UNL d   1     -21.653  27.424  24.998  0.00  0.00     0.040 C 
BRANCH  22  24
ATOM     24  C   UNL d   1     -20.862  27.117  27.347  0.00  0.00     0.015 C 
ATOM     25  C   UNL d   1     -19.933  26.227  28.174  0.00  0.00     0.007 C 
ATOM     26  C   UNL d   1     -20.339  26.295  29.648  0.00  0.00     0.000 C 
ATOM     27  C   UNL d   1     -20.232  27.740  30.140  0.00  0.00     0.000 C 
ATOM     28  C   UNL d   1     -21.162  28.630  29.312  0.00  0.00     0.000 C 
ATOM     29  C   UNL d   1     -20.756  28.561  27.838  0.00  0.00     0.007 C 
ENDBRANCH  22  24
ENDBRANCH  21  22
ENDBRANCH   7  21
BRANCH   5  30
ATOM     30  N   UNL d   1     -23.290  23.613  22.753  0.00  0.00    -0.178 N 
ATOM     31  C   UNL d   1     -24.451  24.086  23.259  0.00  0.00     0.351 A 
ATOM     32  N   UNL d   1     -25.433  23.274  22.835  0.00  0.00    -0.284 N 
ATOM     33  O   UNL d   1     -24.582  25.069  23.967  0.00  0.00    -0.244 OA
ATOM     34  C   UNL d   1     -24.868  22.262  22.088  0.00  0.00     0.131 A 
ATOM     35  C   UNL d   1     -26.873  23.414  23.078  0.00  0.00     0.135 C 
ATOM     36  N   UNL d   1     -23.595  22.458  22.017  0.00  0.00    -0.149 NA
ATOM     37  C   UNL d   1     -25.657  21.125  21.483  0.00  0.00     0.081 C 
ATOM     38  C   UNL d   1     -27.133  21.541  21.440  0.00  0.00     0.009 C 
ATOM     39  C   UNL d   1     -27.547  22.060  22.820  0.00  0.00     0.021 C 
ENDBRANCH   5  30
TORSDOF 7
ENDMDL
