MODEL 1
REMARK VINA RESULT:     -10.1      0.000      0.000
REMARK  7 active torsions:
REMARK  status: ('A' for Active; 'I' for Inactive)
REMARK    1  A    between atoms: C_2  and  C_3 
REMARK    2  A    between atoms: N_5  and  C_6 
REMARK    3  A    between atoms: C_8  and  O_9 
REMARK    4  A    between atoms: O_9  and  C_10 
REMARK    5  A    between atoms: C_10  and  C_12 
REMARK    6  A    between atoms: C_16  and  C_17 
REMARK       I    between atoms: C_17  and  N_19 
REMARK    7  A    between atoms: N_19  and  C_20 
ROOT
ATOM      1  C   UNL d   1     -26.847  23.311  23.755  0.00  0.00     0.104 A 
ATOM      2  C   UNL d   1     -25.981  22.795  22.801  0.00  0.00     0.073 A 
ATOM      3  C   UNL d   1     -24.720  23.342  22.640  0.00  0.00     0.087 A 
ATOM      4  C   UNL d   1     -24.317  24.413  23.453  0.00  0.00     0.068 A 
ATOM      5  C   UNL d   1     -25.194  24.924  24.416  0.00  0.00     0.064 A 
ATOM      6  C   UNL d   1     -26.448  24.375  24.563  0.00  0.00     0.146 A 
ATOM      7  F   UNL d   1     -27.295  24.869  25.494  0.00  0.00    -0.204 F 
ENDROOT
BRANCH   4   8
ATOM      8  C   UNL d   1     -22.974  24.997  23.292  0.00  0.00     0.259 C 
ATOM      9  O   UNL d   1     -22.830  26.023  22.655  0.00  0.00    -0.267 OA
ATOM     10  N   UNL d   1     -21.906  24.394  23.850  0.00  0.00    -0.322 N 
ATOM     11  H   UNL d   1     -22.030  23.623  24.425  0.00  0.00     0.169 HD
BRANCH  10  12
ATOM     12  C   UNL d   1     -20.617  24.881  23.599  0.00  0.00     0.041 A 
ATOM     13  C   UNL d   1     -20.031  25.780  24.480  0.00  0.00    -0.032 A 
ATOM     14  C   UNL d   1     -18.758  26.256  24.233  0.00  0.00     0.051 A 
ATOM     15  C   UNL d   1     -20.780  26.232  25.707  0.00  0.00     0.050 C 
ATOM     16  C   UNL d   1     -18.071  25.845  23.104  0.00  0.00     0.117 A 
ATOM     17  C   UNL d   1     -18.657  24.952  22.221  0.00  0.00     0.044 A 
ATOM     18  F   UNL d   1     -16.829  26.315  22.862  0.00  0.00    -0.206 F 
ATOM     19  C   UNL d   1     -19.927  24.470  22.467  0.00  0.00     0.033 A 
ENDBRANCH  10  12
ENDBRANCH   4   8
BRANCH   3  20
ATOM     20  O   UNL d   1     -23.875  22.843  21.705  0.00  0.00    -0.336 OA
BRANCH  20  21
ATOM     21  C   UNL d   1     -23.964  23.395  20.389  0.00  0.00     0.232 C 
ATOM     22  C   UNL d   1     -22.574  23.836  19.927  0.00  0.00     0.049 C 
BRANCH  21  23
ATOM     23  C   UNL d   1     -24.510  22.337  19.427  0.00  0.00     0.413 C 
ATOM     24  F   UNL d   1     -23.671  21.217  19.444  0.00  0.00    -0.168 F 
ATOM     25  F   UNL d   1     -25.796  21.961  19.829  0.00  0.00    -0.168 F 
ATOM     26  F   UNL d   1     -24.559  22.864  18.134  0.00  0.00    -0.168 F 
ENDBRANCH  21  23
ENDBRANCH  20  21
ENDBRANCH   3  20
BRANCH   1  27
ATOM     27  N   UNL d   1     -28.121  22.759  23.910  0.00  0.00    -0.178 N 
ATOM     28  N   UNL d   1     -29.203  22.905  23.032  0.00  0.00    -0.149 NA
ATOM     29  C   UNL d   1     -30.206  22.244  23.514  0.00  0.00     0.130 A 
ATOM     30  N   UNL d   1     -29.827  21.667  24.701  0.00  0.00    -0.289 N 
ATOM     31  C   UNL d   1     -28.538  21.986  24.935  0.00  0.00     0.351 A 
ATOM     32  C   UNL d   1     -30.674  20.838  25.562  0.00  0.00     0.162 C 
ATOM     33  O   UNL d   1     -27.873  21.642  25.895  0.00  0.00    -0.244 OA
BRANCH  29  34
ATOM     34  C   UNL d   1     -31.568  22.133  22.880  0.00  0.00     0.076 C 
ATOM     35  C   UNL d   1     -31.429  22.184  21.358  0.00  0.00     0.013 C 
ENDBRANCH  29  34
ENDBRANCH   1  27
TORSDOF 7
ENDMDL
