MODEL 1
REMARK VINA RESULT:      -9.9      0.000      0.000
REMARK  8 active torsions:
REMARK  status: ('A' for Active; 'I' for Inactive)
REMARK    1  A    between atoms: C_2  and  O_3 
REMARK    2  A    between atoms: C_2  and  C_31 
REMARK    3  A    between atoms: O_3  and  C_4 
REMARK    4  A    between atoms: C_6  and  N_7 
REMARK    5  A    between atoms: C_9  and  C_10 
REMARK    6  A    between atoms: C_10  and  O_11 
REMARK    7  A    between atoms: C_19  and  C_20 
REMARK       I    between atoms: C_20  and  N_22 
REMARK    8  A    between atoms: N_22  and  C_23 
ROOT
ATOM      1  C   UNL d   1     -24.709  23.344  22.639  0.00  0.00     0.087 A 
ATOM      2  C   UNL d   1     -25.963  22.778  22.794  0.00  0.00     0.073 A 
ATOM      3  C   UNL d   1     -26.831  23.265  23.761  0.00  0.00     0.104 A 
ATOM      4  C   UNL d   1     -26.445  24.326  24.581  0.00  0.00     0.146 A 
ATOM      5  F   UNL d   1     -27.294  24.795  25.520  0.00  0.00    -0.204 F 
ATOM      6  C   UNL d   1     -25.200  24.895  24.435  0.00  0.00     0.064 A 
ATOM      7  C   UNL d   1     -24.318  24.411  23.462  0.00  0.00     0.068 A 
ENDROOT
BRANCH   7   8
ATOM      8  C   UNL d   1     -22.985  25.017  23.303  0.00  0.00     0.259 C 
ATOM      9  O   UNL d   1     -22.840  25.990  22.589  0.00  0.00    -0.267 OA
ATOM     10  N   UNL d   1     -21.926  24.491  23.950  0.00  0.00    -0.319 N 
ATOM     11  H   UNL d   1     -22.054  23.768  24.582  0.00  0.00     0.169 HD
BRANCH  10  12
ATOM     12  C   UNL d   1     -20.640  24.993  23.709  0.00  0.00     0.096 A 
ATOM     13  C   UNL d   1     -20.138  26.024  24.492  0.00  0.00     0.064 A 
ATOM     14  C   UNL d   1     -18.866  26.513  24.257  0.00  0.00     0.026 A 
ATOM     15 CL   UNL d   1     -21.104  26.694  25.770  0.00  0.00    -0.082 Cl
ATOM     16  C   UNL d   1     -18.099  25.984  23.236  0.00  0.00     0.005 A 
ATOM     17  C   UNL d   1     -18.597  24.961  22.450  0.00  0.00     0.045 A 
ATOM     18  C   UNL d   1     -19.866  24.462  22.683  0.00  0.00     0.144 A 
ATOM     19  F   UNL d   1     -20.352  23.463  21.916  0.00  0.00    -0.204 F 
ENDBRANCH  10  12
ENDBRANCH   7   8
BRANCH   1  20
ATOM     20  O   UNL d   1     -23.860  22.868  21.693  0.00  0.00    -0.336 OA
BRANCH  20  21
ATOM     21  C   UNL d   1     -23.993  23.401  20.374  0.00  0.00     0.232 C 
ATOM     22  C   UNL d   1     -22.625  23.862  19.870  0.00  0.00     0.049 C 
BRANCH  21  23
ATOM     23  C   UNL d   1     -24.544  22.320  19.441  0.00  0.00     0.413 C 
ATOM     24  F   UNL d   1     -25.825  21.947  19.863  0.00  0.00    -0.168 F 
ATOM     25  F   UNL d   1     -24.611  22.822  18.137  0.00  0.00    -0.168 F 
ATOM     26  F   UNL d   1     -23.699  21.206  19.469  0.00  0.00    -0.168 F 
ENDBRANCH  21  23
ENDBRANCH  20  21
ENDBRANCH   1  20
BRANCH   3  27
ATOM     27  N   UNL d   1     -28.092  22.688  23.919  0.00  0.00    -0.178 N 
ATOM     28  C   UNL d   1     -29.122  22.766  23.050  0.00  0.00     0.351 A 
ATOM     29  N   UNL d   1     -30.149  22.071  23.578  0.00  0.00    -0.287 N 
ATOM     30  O   UNL d   1     -29.121  23.353  21.983  0.00  0.00    -0.244 OA
ATOM     31  C   UNL d   1     -29.751  21.567  24.791  0.00  0.00     0.154 A 
ATOM     32  C   UNL d   1     -31.467  21.890  22.965  0.00  0.00     0.163 C 
ATOM     33  N   UNL d   1     -28.526  21.925  25.012  0.00  0.00    -0.147 NA
BRANCH  31  34
ATOM     34  C   UNL d   1     -30.600  20.733  25.717  0.00  0.00     0.244 C 
BRANCH  34  35
ATOM     35  O   UNL d   1     -31.509  21.580  26.422  0.00  0.00    -0.393 OA
ATOM     36  H   UNL d   1     -31.409  22.520  26.218  0.00  0.00     0.209 HD
ENDBRANCH  34  35
ENDBRANCH  31  34
ENDBRANCH   3  27
TORSDOF 8
ENDMDL
