MODEL 1
REMARK VINA RESULT:     -11.3      0.000      0.000
REMARK  7 active torsions:
REMARK  status: ('A' for Active; 'I' for Inactive)
REMARK    1  A    between atoms: C_2  and  O_3 
REMARK    2  A    between atoms: C_2  and  C_4 
REMARK    3  A    between atoms: C_5  and  C_6 
REMARK       I    between atoms: C_6  and  N_8 
REMARK    4  A    between atoms: N_8  and  C_9 
REMARK    5  A    between atoms: C_12  and  C_13 
REMARK    6  A    between atoms: C_17  and  O_18 
REMARK    7  A    between atoms: O_18  and  C_19 
ROOT
ATOM      1  C   UNL d   1     -25.888  23.143  23.735  0.00  0.00     0.036 A 
ATOM      2  C   UNL d   1     -26.509  23.212  24.977  0.00  0.00     0.030 A 
ATOM      3  C   UNL d   1     -27.822  22.815  25.115  0.00  0.00     0.016 A 
ATOM      4  C   UNL d   1     -28.527  22.344  24.009  0.00  0.00    -0.004 A 
ATOM      5  C   UNL d   1     -27.902  22.276  22.763  0.00  0.00     0.047 A 
ATOM      6 CL   UNL d   1     -28.777  21.690  21.382  0.00  0.00    -0.083 Cl
ATOM      7  C   UNL d   1     -26.586  22.669  22.631  0.00  0.00     0.054 A 
ENDROOT
BRANCH   1   8
ATOM      8  N   UNL d   1     -24.557  23.545  23.598  0.00  0.00    -0.323 N 
ATOM      9  C   UNL d   1     -24.260  24.850  23.439  0.00  0.00     0.253 C 
ATOM     10  O   UNL d   1     -25.138  25.688  23.519  0.00  0.00    -0.268 OA
ATOM     11  H   UNL d   1     -23.847  22.886  23.619  0.00  0.00     0.169 HD
BRANCH   9  12
ATOM     12  C   UNL d   1     -22.870  25.263  23.164  0.00  0.00     0.023 C 
ATOM     13  C   UNL d   1     -22.229  25.062  22.005  0.00  0.00     0.027 C 
ATOM     14  C   UNL d   1     -20.823  25.611  22.075  0.00  0.00     0.046 C 
ATOM     15  C   UNL d   1     -20.545  25.801  23.584  0.00  0.00     0.010 C 
ATOM     16  C   UNL d   1     -21.974  25.977  24.149  0.00  0.00     0.045 C 
BRANCH  13  17
ATOM     17  C   UNL d   1     -22.813  24.398  20.825  0.00  0.00     0.172 C 
ATOM     18  O   UNL d   1     -23.111  23.222  20.876  0.00  0.00    -0.646 OA
BRANCH  17  19
ATOM     19  O   UNL d   1     -23.015  25.095  19.690  0.00  0.00    -0.773 OA
ATOM     20  H   UNL d   1     -23.368  25.990  19.781  0.00  0.00     0.167 HD
ENDBRANCH  17  19
ENDBRANCH  13  17
ENDBRANCH   9  12
ENDBRANCH   1   8
BRANCH   4  21
ATOM     21  C   UNL d   1     -29.940  21.916  24.155  0.00  0.00    -0.022 A 
ATOM     22  C   UNL d   1     -30.915  22.423  23.300  0.00  0.00     0.049 A 
ATOM     23  C   UNL d   1     -32.232  22.015  23.438  0.00  0.00     0.079 A 
ATOM     24  C   UNL d   1     -32.578  21.112  24.434  0.00  0.00     0.037 A 
ATOM     25  C   UNL d   1     -31.611  20.614  25.287  0.00  0.00     0.004 A 
ATOM     26  C   UNL d   1     -30.296  21.010  25.153  0.00  0.00     0.012 A 
BRANCH  23  27
ATOM     27  O   UNL d   1     -33.185  22.502  22.602  0.00  0.00    -0.255 OA
BRANCH  27  28
ATOM     28  C   UNL d   1     -33.335  21.852  21.338  0.00  0.00     0.530 C 
ATOM     29  F   UNL d   1     -34.435  22.390  20.664  0.00  0.00    -0.144 F 
ATOM     30  F   UNL d   1     -32.179  22.047  20.574  0.00  0.00    -0.144 F 
ATOM     31  F   UNL d   1     -33.536  20.482  21.540  0.00  0.00    -0.144 F 
ENDBRANCH  27  28
ENDBRANCH  23  27
ENDBRANCH   4  21
TORSDOF 7
ENDMDL
