MODEL 1
REMARK VINA RESULT:     -10.1      0.000      0.000
REMARK  9 active torsions:
REMARK  status: ('A' for Active; 'I' for Inactive)
REMARK    1  A    between atoms: C_2  and  N_3 
REMARK    2  A    between atoms: C_4  and  C_5 
REMARK    3  A    between atoms: C_5  and  O_6 
REMARK    4  A    between atoms: N_8  and  C_9 
REMARK    5  A    between atoms: C_11  and  O_12 
REMARK    6  A    between atoms: O_12  and  C_13 
REMARK    7  A    between atoms: C_13  and  C_15 
REMARK    8  A    between atoms: C_19  and  C_20 
REMARK       I    between atoms: C_20  and  N_22 
REMARK    9  A    between atoms: N_22  and  C_23 
ROOT
ATOM      1  C   UNL d   1     -26.616  23.377  23.555  0.00  0.00     0.197 A 
ATOM      2  N   UNL d   1     -25.768  22.900  22.656  0.00  0.00    -0.201 NA
ATOM      3  C   UNL d   1     -24.549  23.390  22.521  0.00  0.00     0.183 A 
ATOM      4  C   UNL d   1     -24.110  24.444  23.337  0.00  0.00     0.088 A 
ATOM      5  C   UNL d   1     -24.985  24.964  24.303  0.00  0.00     0.068 A 
ATOM      6  C   UNL d   1     -26.252  24.423  24.402  0.00  0.00     0.165 A 
ATOM      7  F   UNL d   1     -27.127  24.898  25.315  0.00  0.00    -0.202 F 
ENDROOT
BRANCH   4   8
ATOM      8  C   UNL d   1     -22.751  24.989  23.188  0.00  0.00     0.260 C 
ATOM      9  O   UNL d   1     -22.566  25.986  22.517  0.00  0.00    -0.267 OA
ATOM     10  N   UNL d   1     -21.711  24.385  23.797  0.00  0.00    -0.318 N 
ATOM     11  H   UNL d   1     -21.846  23.550  24.272  0.00  0.00     0.169 HD
BRANCH  10  12
ATOM     12  C   UNL d   1     -20.437  24.962  23.743  0.00  0.00     0.099 A 
ATOM     13  C   UNL d   1     -19.529  24.577  22.761  0.00  0.00     0.237 A 
ATOM     14  N   UNL d   1     -18.325  25.115  22.710  0.00  0.00    -0.231 NA
ATOM     15  F   UNL d   1     -19.880  23.639  21.854  0.00  0.00    -0.182 F 
ATOM     16  C   UNL d   1     -17.938  26.034  23.575  0.00  0.00     0.120 A 
ATOM     17  C   UNL d   1     -18.787  26.471  24.574  0.00  0.00     0.028 A 
ATOM     18  C   UNL d   1     -20.061  25.933  24.666  0.00  0.00    -0.029 A 
ATOM     19  C   UNL d   1     -21.014  26.385  25.742  0.00  0.00     0.050 C 
ENDBRANCH  10  12
ENDBRANCH   4   8
BRANCH   3  20
ATOM     20  O   UNL d   1     -23.716  22.872  21.587  0.00  0.00    -0.319 OA
BRANCH  20  21
ATOM     21  C   UNL d   1     -23.823  23.395  20.262  0.00  0.00     0.234 C 
ATOM     22  C   UNL d   1     -22.431  23.770  19.748  0.00  0.00     0.049 C 
BRANCH  21  23
ATOM     23  C   UNL d   1     -24.435  22.335  19.343  0.00  0.00     0.413 C 
ATOM     24  F   UNL d   1     -23.587  21.223  19.285  0.00  0.00    -0.168 F 
ATOM     25  F   UNL d   1     -25.681  21.945  19.847  0.00  0.00    -0.168 F 
ATOM     26  F   UNL d   1     -24.596  22.866  18.059  0.00  0.00    -0.168 F 
ENDBRANCH  21  23
ENDBRANCH  20  21
ENDBRANCH   3  20
BRANCH   1  27
ATOM     27  N   UNL d   1     -27.891  22.825  23.657  0.00  0.00    -0.159 N 
ATOM     28  N   UNL d   1     -28.935  22.971  22.734  0.00  0.00    -0.145 NA
ATOM     29  C   UNL d   1     -29.957  22.310  23.176  0.00  0.00     0.154 A 
ATOM     30  N   UNL d   1     -29.626  21.731  24.376  0.00  0.00    -0.283 N 
ATOM     31  C   UNL d   1     -28.350  22.054  24.665  0.00  0.00     0.352 A 
ATOM     32  O   UNL d   1     -27.725  21.713  25.653  0.00  0.00    -0.244 OA
BRANCH  29  33
ATOM     33  C   UNL d   1     -31.294  22.200  22.488  0.00  0.00     0.244 C 
BRANCH  33  34
ATOM     34  O   UNL d   1     -31.113  22.317  21.074  0.00  0.00    -0.393 OA
ATOM     35  H   UNL d   1     -31.560  21.629  20.563  0.00  0.00     0.209 HD
ENDBRANCH  33  34
ENDBRANCH  29  33
BRANCH  30  36
ATOM     36  C   UNL d   1     -30.509  20.904  25.202  0.00  0.00     0.131 C 
ATOM     37  C   UNL d   1     -31.607  21.781  25.809  0.00  0.00     0.027 C 
ENDBRANCH  30  36
ENDBRANCH   1  27
TORSDOF 9
ENDMDL
