MODEL 1
REMARK VINA RESULT:     -10.3      0.000      0.000
REMARK  7 active torsions:
REMARK  status: ('A' for Active; 'I' for Inactive)
REMARK    1  A    between atoms: C_2  and  O_3 
REMARK    2  A    between atoms: C_2  and  C_4 
REMARK    3  A    between atoms: C_5  and  C_6 
REMARK       I    between atoms: C_6  and  N_8 
REMARK    4  A    between atoms: N_8  and  C_9 
REMARK    5  A    between atoms: C_13  and  O_14 
REMARK    6  A    between atoms: O_14  and  C_15 
REMARK    7  A    between atoms: C_15  and  C_16 
ROOT
ATOM      1  C   UNL d   1     -25.747  22.942  23.529  0.00  0.00     0.037 A 
ATOM      2  C   UNL d   1     -26.433  22.576  22.378  0.00  0.00     0.051 A 
ATOM      3  C   UNL d   1     -27.731  22.110  22.467  0.00  0.00     0.048 A 
ATOM      4 BR   UNL d   1     -28.663  21.604  20.901  0.00  0.00    -0.048 Br
ATOM      5  C   UNL d   1     -28.352  22.019  23.705  0.00  0.00     0.104 A 
ATOM      6  C   UNL d   1     -27.669  22.390  24.854  0.00  0.00     0.048 A 
ATOM      7 BR   UNL d   1     -28.517  22.265  26.540  0.00  0.00    -0.048 Br
ATOM      8  C   UNL d   1     -26.369  22.851  24.766  0.00  0.00     0.051 A 
ENDROOT
BRANCH   1   9
ATOM      9  N   UNL d   1     -24.431  23.410  23.440  0.00  0.00    -0.323 N 
ATOM     10  C   UNL d   1     -24.190  24.733  23.359  0.00  0.00     0.253 C 
ATOM     11  O   UNL d   1     -25.109  25.525  23.446  0.00  0.00    -0.268 OA
ATOM     12  H   UNL d   1     -23.692  22.782  23.438  0.00  0.00     0.169 HD
BRANCH  10  13
ATOM     13  C   UNL d   1     -22.811  25.223  23.169  0.00  0.00     0.023 C 
ATOM     14  C   UNL d   1     -22.131  25.162  22.016  0.00  0.00     0.027 C 
ATOM     15  C   UNL d   1     -20.751  25.753  22.183  0.00  0.00     0.046 C 
ATOM     16  C   UNL d   1     -20.521  25.803  23.711  0.00  0.00     0.010 C 
ATOM     17  C   UNL d   1     -21.970  25.868  24.247  0.00  0.00     0.045 C 
BRANCH  14  18
ATOM     18  C   UNL d   1     -22.657  24.596  20.760  0.00  0.00     0.172 C 
ATOM     19  O   UNL d   1     -23.005  23.434  20.715  0.00  0.00    -0.646 OA
BRANCH  18  20
ATOM     20  O   UNL d   1     -22.752  25.370  19.661  0.00  0.00    -0.773 OA
ATOM     21  H   UNL d   1     -22.524  26.305  19.761  0.00  0.00     0.167 HD
ENDBRANCH  18  20
ENDBRANCH  14  18
ENDBRANCH  10  13
ENDBRANCH   1   9
BRANCH   5  22
ATOM     22  O   UNL d   1     -29.632  21.566  23.791  0.00  0.00    -0.344 OA
BRANCH  22  23
ATOM     23  C   UNL d   1     -30.674  22.532  23.638  0.00  0.00     0.214 C 
BRANCH  23  24
ATOM     24  C   UNL d   1     -31.904  21.860  23.085  0.00  0.00    -0.034 A 
ATOM     25  C   UNL d   1     -32.265  22.058  21.765  0.00  0.00     0.009 A 
ATOM     26  C   UNL d   1     -33.394  21.440  21.258  0.00  0.00     0.001 A 
ATOM     27  C   UNL d   1     -34.160  20.626  22.070  0.00  0.00     0.000 A 
ATOM     28  C   UNL d   1     -33.799  20.428  23.389  0.00  0.00     0.001 A 
ATOM     29  C   UNL d   1     -32.668  21.041  23.895  0.00  0.00     0.009 A 
ENDBRANCH  23  24
ENDBRANCH  22  23
ENDBRANCH   5  22
TORSDOF 7
ENDMDL
