MODEL 1
REMARK VINA RESULT:     -10.3      0.000      0.000
REMARK  6 active torsions:
REMARK  status: ('A' for Active; 'I' for Inactive)
REMARK    1  A    between atoms: O_2  and  C_3 
REMARK    2  A    between atoms: C_8  and  C_9 
REMARK    3  A    between atoms: C_9  and  C_10 
REMARK    4  A    between atoms: C_10  and  C_11 
REMARK    5  A    between atoms: CA_12  and  C_13 
REMARK    6  A    between atoms: C_13  and  OXT_15 
ROOT
ATOM      1  C   UNL d   1     -31.157  21.405  24.527  0.00  0.00     0.044 A 
ATOM      2  CA  UNL d   1     -32.301  20.705  24.318  0.00  0.00     0.122 A 
ATOM      3  N   UNL d   1     -32.564  19.592  25.088  0.00  0.00    -0.302 N 
ATOM      4  H   UNL d   1     -33.381  19.091  24.938  0.00  0.00     0.171 HD
ATOM      5  C   UNL d   1     -31.707  19.187  26.040  0.00  0.00     0.327 A 
ATOM      6  O   UNL d   1     -31.975  18.200  26.697  0.00  0.00    -0.247 OA
ATOM      7  N   UNL d   1     -30.561  19.845  26.286  0.00  0.00    -0.275 N 
ATOM      8  H   UNL d   1     -29.962  19.527  26.981  0.00  0.00     0.173 HD
ATOM      9  C   UNL d   1     -30.234  20.941  25.569  0.00  0.00     0.258 A 
ATOM     10  O   UNL d   1     -29.194  21.534  25.787  0.00  0.00    -0.267 OA
ENDROOT
BRANCH   1  11
ATOM     11  C   UNL d   1     -30.839  22.626  23.703  0.00  0.00     0.051 C 
BRANCH  11  12
ATOM     12  C   UNL d   1     -30.448  22.199  22.287  0.00  0.00     0.043 C 
BRANCH  12  13
ATOM     13  C   UNL d   1     -28.947  22.173  22.164  0.00  0.00    -0.057 A 
ATOM     14  C   UNL d   1     -28.190  22.878  23.049  0.00  0.00     0.019 A 
ATOM     15  C   UNL d   1     -26.789  22.856  22.939  0.00  0.00    -0.025 A 
ATOM     16  C   UNL d   1     -25.977  23.568  23.837  0.00  0.00     0.015 A 
ATOM     17  C   UNL d   1     -26.186  22.098  21.904  0.00  0.00    -0.023 A 
ATOM     18  C   UNL d   1     -24.624  23.530  23.699  0.00  0.00     0.037 A 
ATOM     19  C   UNL d   1     -24.026  22.781  22.680  0.00  0.00     0.069 A 
ATOM     20  C   UNL d   1     -24.786  22.074  21.793  0.00  0.00     0.049 A 
ATOM     21  C   UNL d   1     -27.001  21.382  21.009  0.00  0.00     0.013 A 
ATOM     22  C   UNL d   1     -28.353  21.426  21.148  0.00  0.00     0.008 A 
BRANCH  19  23
ATOM     23  O   UNL d   1     -22.672  22.759  22.571  0.00  0.00    -0.356 OA
ATOM     24  C   UNL d   1     -22.045  23.920  22.024  0.00  0.00     0.210 C 
ENDBRANCH  19  23
ENDBRANCH  12  13
ENDBRANCH  11  12
ENDBRANCH   1  11
BRANCH   2  25
ATOM     25  C   UNL d   1     -33.261  21.133  23.273  0.00  0.00     0.194 C 
ATOM     26  O   UNL d   1     -33.546  20.379  22.365  0.00  0.00    -0.645 OA
BRANCH  25  27
ATOM     27  OXT UNL d   1     -33.817  22.358  23.329  0.00  0.00    -0.772 OA
ATOM     28  HXT UNL d   1     -34.769  22.402  23.494  0.00  0.00     0.167 HD
ENDBRANCH  25  27
ENDBRANCH   2  25
TORSDOF 6
ENDMDL
