MODEL 1
REMARK VINA RESULT:      -8.1      0.000      0.000
REMARK  7 active torsions:
REMARK  status: ('A' for Active; 'I' for Inactive)
REMARK    1  A    between atoms: C_2  and  C_3 
REMARK    2  A    between atoms: N_5  and  C_6 
REMARK    3  A    between atoms: C_8  and  O_9 
REMARK    4  A    between atoms: O_9  and  C_10 
REMARK    5  A    between atoms: C_10  and  C_12 
REMARK    6  A    between atoms: C_18  and  C_19 
REMARK       I    between atoms: C_19  and  N_21 
REMARK    7  A    between atoms: N_21  and  C_22 
ROOT
ATOM      1  C   UNL d   1     -21.261  24.186  22.291  0.00  0.00     0.104 A 
ATOM      2  C   UNL d   1     -21.418  24.738  23.556  0.00  0.00     0.073 A 
ATOM      3  C   UNL d   1     -20.338  25.319  24.197  0.00  0.00     0.087 A 
ATOM      4  C   UNL d   1     -19.087  25.352  23.563  0.00  0.00     0.068 A 
ATOM      5  C   UNL d   1     -18.936  24.787  22.293  0.00  0.00     0.064 A 
ATOM      6  C   UNL d   1     -20.016  24.212  21.663  0.00  0.00     0.146 A 
ATOM      7  F   UNL d   1     -19.872  23.673  20.433  0.00  0.00    -0.204 F 
ENDROOT
BRANCH   4   8
ATOM      8  C   UNL d   1     -17.934  25.975  24.237  0.00  0.00     0.260 C 
ATOM      9  O   UNL d   1     -17.514  27.050  23.854  0.00  0.00    -0.267 OA
ATOM     10  N   UNL d   1     -17.346  25.353  25.277  0.00  0.00    -0.307 N 
ATOM     11  H   UNL d   1     -17.681  24.496  25.583  0.00  0.00     0.170 HD
BRANCH  10  12
ATOM     12  C   UNL d   1     -16.255  25.942  25.916  0.00  0.00     0.127 A 
ATOM     13  N   UNL d   1     -14.948  25.779  25.587  0.00  0.00    -0.259 N 
ATOM     14  N   UNL d   1     -14.184  26.545  26.477  0.00  0.00    -0.184 NA
ATOM     15  C   UNL d   1     -14.429  24.950  24.496  0.00  0.00     0.181 C 
ATOM     16  C   UNL d   1     -14.996  27.144  27.309  0.00  0.00     0.142 A 
ATOM     17  C   UNL d   1     -16.307  26.791  26.979  0.00  0.00     0.071 A 
ENDBRANCH  10  12
ENDBRANCH   4   8
BRANCH   3  18
ATOM     18  O   UNL d   1     -20.491  25.859  25.432  0.00  0.00    -0.345 OA
BRANCH  18  19
ATOM     19  C   UNL d   1     -20.625  27.280  25.507  0.00  0.00     0.129 C 
ATOM     20  C   UNL d   1     -22.073  27.671  25.204  0.00  0.00     0.040 C 
BRANCH  19  21
ATOM     21  C   UNL d   1     -20.253  27.754  26.914  0.00  0.00     0.015 C 
ATOM     22  C   UNL d   1     -20.098  26.542  27.835  0.00  0.00     0.007 C 
ATOM     23  C   UNL d   1     -19.725  27.016  29.242  0.00  0.00     0.000 C 
ATOM     24  C   UNL d   1     -20.827  27.930  29.781  0.00  0.00     0.000 C 
ATOM     25  C   UNL d   1     -20.983  29.141  28.859  0.00  0.00     0.000 C 
ATOM     26  C   UNL d   1     -21.355  28.667  27.453  0.00  0.00     0.007 C 
ENDBRANCH  19  21
ENDBRANCH  18  19
ENDBRANCH   3  18
BRANCH   1  27
ATOM     27  N   UNL d   1     -22.354  23.600  21.647  0.00  0.00    -0.178 N 
ATOM     28  N   UNL d   1     -23.165  22.576  22.153  0.00  0.00    -0.149 NA
ATOM     29  C   UNL d   1     -24.069  22.304  21.268  0.00  0.00     0.130 A 
ATOM     30  N   UNL d   1     -23.884  23.120  20.180  0.00  0.00    -0.289 N 
ATOM     31  C   UNL d   1     -22.828  23.922  20.425  0.00  0.00     0.351 A 
ATOM     32  C   UNL d   1     -24.700  23.127  18.963  0.00  0.00     0.162 C 
ATOM     33  O   UNL d   1     -22.381  24.774  19.679  0.00  0.00    -0.244 OA
BRANCH  29  34
ATOM     34  C   UNL d   1     -25.148  21.260  21.408  0.00  0.00     0.076 C 
ATOM     35  C   UNL d   1     -26.385  21.888  22.051  0.00  0.00     0.013 C 
ENDBRANCH  29  34
ENDBRANCH   1  27
TORSDOF 7
ENDMDL
