MODEL 1
REMARK VINA RESULT:     -12.6      0.000      0.000
REMARK  6 active torsions:
REMARK  status: ('A' for Active; 'I' for Inactive)
REMARK    1  A    between atoms: C_4  and  C_5 
REMARK    2  A    between atoms: C_5  and  O_7 
REMARK    3  A    between atoms: C_10  and  C_11 
REMARK    4  A    between atoms: C_14  and  C_15 
REMARK    5  A    between atoms: C_18  and  N_19 
REMARK       I    between atoms: N_19  and  C_20 
REMARK    6  A    between atoms: C_20  and  C_22 
ROOT
ATOM      1  C   UNL d   1     -26.771  22.972  23.047  0.00  0.00     0.010 A 
ATOM      2  C   UNL d   1     -26.274  24.030  23.811  0.00  0.00     0.016 A 
ATOM      3  C   UNL d   1     -24.939  24.359  23.741  0.00  0.00     0.013 A 
ATOM      4  C   UNL d   1     -24.085  23.642  22.903  0.00  0.00    -0.026 A 
ATOM      5  C   UNL d   1     -24.581  22.581  22.143  0.00  0.00     0.013 A 
ATOM      6  C   UNL d   1     -25.914  22.249  22.211  0.00  0.00     0.016 A 
ENDROOT
BRANCH   4   7
ATOM      7  C   UNL d   1     -22.650  24.003  22.824  0.00  0.00    -0.026 A 
ATOM      8  C   UNL d   1     -22.182  24.775  21.760  0.00  0.00     0.014 A 
ATOM      9  C   UNL d   1     -20.847  25.110  21.689  0.00  0.00     0.030 A 
ATOM     10  C   UNL d   1     -19.968  24.678  22.673  0.00  0.00     0.034 A 
ATOM     11  C   UNL d   1     -20.431  23.908  23.734  0.00  0.00     0.030 A 
ATOM     12  C   UNL d   1     -21.766  23.576  23.814  0.00  0.00     0.014 A 
BRANCH  10  13
ATOM     13  N   UNL d   1     -18.613  25.018  22.598  0.00  0.00    -0.327 N 
ATOM     14  C   UNL d   1     -18.125  26.013  23.366  0.00  0.00     0.226 C 
ATOM     15  O   UNL d   1     -18.836  26.548  24.190  0.00  0.00    -0.273 OA
ATOM     16  H   UNL d   1     -18.026  24.539  21.994  0.00  0.00     0.169 HD
BRANCH  14  17
ATOM     17  C   UNL d   1     -16.696  26.459  23.200  0.00  0.00     0.081 C 
ATOM     18  C   UNL d   1     -15.964  25.492  22.264  0.00  0.00     0.044 C 
ATOM     19  C   UNL d   1     -14.530  25.984  22.051  0.00  0.00     0.270 C 
ATOM     20  N   UNL d   1     -14.555  27.333  21.469  0.00  0.00     0.083 N 
ATOM     21  C   UNL d   1     -15.211  28.287  22.371  0.00  0.00     0.270 C 
ATOM     22  H   UNL d   1     -14.998  27.327  20.563  0.00  0.00     0.315 HD
ATOM     23  C   UNL d   1     -16.664  27.865  22.593  0.00  0.00     0.044 C 
ENDBRANCH  14  17
ENDBRANCH  10  13
ENDBRANCH   4   7
BRANCH   1  24
ATOM     24  C   UNL d   1     -28.204  22.616  23.121  0.00  0.00     0.139 A 
ATOM     25  N   UNL d   1     -28.808  22.128  24.179  0.00  0.00    -0.227 NA
ATOM     26  C   UNL d   1     -30.108  21.919  23.906  0.00  0.00     0.102 A 
ATOM     27  C   UNL d   1     -31.190  21.419  24.664  0.00  0.00     0.069 A 
ATOM     28  C   UNL d   1     -30.323  22.307  22.571  0.00  0.00     0.064 A 
ATOM     29  C   UNL d   1     -32.450  21.322  24.077  0.00  0.00     0.027 A 
ATOM     30  C   UNL d   1     -32.640  21.709  22.764  0.00  0.00    -0.059 A 
ATOM     31  C   UNL d   1     -34.009  21.596  22.144  0.00  0.00     0.048 C 
ATOM     32  C   UNL d   1     -31.588  22.198  22.013  0.00  0.00     0.038 A 
ATOM     33  N   UNL d   1     -29.103  22.750  22.098  0.00  0.00    -0.338 N 
ATOM     34  H   UNL d   1     -28.918  23.090  21.209  0.00  0.00     0.167 HD
BRANCH  27  35
ATOM     35  C   UNL d   1     -30.989  21.005  26.063  0.00  0.00     0.178 C 
ATOM     36  O   UNL d   1     -31.573  20.032  26.498  0.00  0.00    -0.646 OA
BRANCH  35  37
ATOM     37  O   UNL d   1     -30.158  21.705  26.859  0.00  0.00    -0.773 OA
ATOM     38  H   UNL d   1     -29.732  22.483  26.475  0.00  0.00     0.167 HD
ENDBRANCH  35  37
ENDBRANCH  27  35
ENDBRANCH   1  24
TORSDOF 6
ENDMDL
