MODEL 1
REMARK VINA RESULT:     -10.7      0.000      0.000
REMARK  6 active torsions:
REMARK  status: ('A' for Active; 'I' for Inactive)
REMARK    1  A    between atoms: C_2  and  O_3 
REMARK    2  A    between atoms: C_2  and  C_34 
REMARK    3  A    between atoms: O_3  and  C_4 
REMARK    4  A    between atoms: C_6  and  N_7 
REMARK    5  A    between atoms: C_21  and  C_22 
REMARK       I    between atoms: C_22  and  N_24 
REMARK    6  A    between atoms: N_24  and  C_25 
ROOT
ATOM      1  C   UNL d   1     -24.313  23.593  22.694  0.00  0.00     0.087 A 
ATOM      2  C   UNL d   1     -25.554  22.985  22.777  0.00  0.00     0.073 A 
ATOM      3  C   UNL d   1     -26.497  23.455  23.680  0.00  0.00     0.104 A 
ATOM      4  C   UNL d   1     -26.202  24.540  24.505  0.00  0.00     0.146 A 
ATOM      5  F   UNL d   1     -27.126  24.991  25.381  0.00  0.00    -0.204 F 
ATOM      6  C   UNL d   1     -24.970  25.151  24.429  0.00  0.00     0.064 A 
ATOM      7  C   UNL d   1     -24.013  24.683  23.523  0.00  0.00     0.068 A 
ENDROOT
BRANCH   7   8
ATOM      8  C   UNL d   1     -22.693  25.331  23.443  0.00  0.00     0.259 C 
ATOM      9  O   UNL d   1     -22.575  26.408  22.889  0.00  0.00    -0.267 OA
ATOM     10  N   UNL d   1     -21.613  24.730  23.983  0.00  0.00    -0.320 N 
ATOM     11  H   UNL d   1     -21.685  23.829  24.334  0.00  0.00     0.169 HD
BRANCH  10  12
ATOM     12  C   UNL d   1     -20.389  25.408  24.040  0.00  0.00     0.079 A 
ATOM     13  C   UNL d   1     -20.151  26.332  25.051  0.00  0.00     0.065 A 
ATOM     14  C   UNL d   1     -18.942  27.000  25.103  0.00  0.00     0.068 A 
ATOM     15 CL   UNL d   1     -21.371  26.646  26.244  0.00  0.00    -0.082 Cl
ATOM     16  C   UNL d   1     -17.969  26.748  24.151  0.00  0.00     0.119 A 
ATOM     17  C   UNL d   1     -18.203  25.828  23.143  0.00  0.00     0.068 A 
ATOM     18  F   UNL d   1     -16.787  27.403  24.205  0.00  0.00    -0.206 F 
ATOM     19  C   UNL d   1     -19.409  25.154  23.089  0.00  0.00     0.065 A 
ATOM     20 CL   UNL d   1     -19.700  23.995  21.829  0.00  0.00    -0.082 Cl
ENDBRANCH  10  12
ENDBRANCH   7   8
BRANCH   1  21
ATOM     21  O   UNL d   1     -23.389  23.134  21.811  0.00  0.00    -0.336 OA
BRANCH  21  22
ATOM     22  C   UNL d   1     -23.656  23.346  20.424  0.00  0.00     0.232 C 
ATOM     23  C   UNL d   1     -22.352  23.689  19.700  0.00  0.00     0.049 C 
BRANCH  22  24
ATOM     24  C   UNL d   1     -24.255  22.074  19.820  0.00  0.00     0.413 C 
ATOM     25  F   UNL d   1     -25.619  22.272  19.578  0.00  0.00    -0.168 F 
ATOM     26  F   UNL d   1     -23.606  21.779  18.616  0.00  0.00    -0.168 F 
ATOM     27  F   UNL d   1     -24.090  21.011  20.713  0.00  0.00    -0.168 F 
ENDBRANCH  22  24
ENDBRANCH  21  22
ENDBRANCH   1  21
BRANCH   3  28
ATOM     28  N   UNL d   1     -27.749  22.839  23.761  0.00  0.00    -0.178 N 
ATOM     29  C   UNL d   1     -28.205  22.083  24.787  0.00  0.00     0.351 A 
ATOM     30  N   UNL d   1     -29.443  21.693  24.474  0.00  0.00    -0.282 N 
ATOM     31  O   UNL d   1     -27.598  21.811  25.807  0.00  0.00    -0.244 OA
ATOM     32  C   UNL d   1     -29.760  22.204  23.222  0.00  0.00     0.155 A 
ATOM     33  C   UNL d   1     -30.384  20.866  25.243  0.00  0.00     0.137 C 
ATOM     34  N   UNL d   1     -28.764  22.886  22.791  0.00  0.00    -0.147 NA
ATOM     35  C   UNL d   1     -31.097  21.937  22.559  0.00  0.00     0.248 C 
ATOM     36  O   UNL d   1     -32.106  22.571  23.354  0.00  0.00    -0.384 OA
ATOM     37  C   UNL d   1     -32.567  21.849  24.476  0.00  0.00     0.169 C 
ATOM     38  C   UNL d   1     -31.581  21.750  25.617  0.00  0.00     0.046 C 
ENDBRANCH   3  28
TORSDOF 6
ENDMDL
