MODEL 1
REMARK VINA RESULT:     -10.1      0.000      0.000
REMARK  7 active torsions:
REMARK  status: ('A' for Active; 'I' for Inactive)
REMARK    1  A    between atoms: C_8  and  N_9 
REMARK       I    between atoms: N_9  and  C_10 
REMARK    2  A    between atoms: C_10  and  C_12 
REMARK    3  A    between atoms: C_16  and  N_17 
REMARK    4  A    between atoms: N_21  and  C_22 
REMARK    5  A    between atoms: C_28  and  O_29 
REMARK    6  A    between atoms: O_29  and  C_30 
REMARK    7  A    between atoms: C_30  and  C_32 
ROOT
ATOM      1  C   UNL d   1     -24.244  24.398  23.393  0.00  0.00     0.068 A 
ATOM      2  C   UNL d   1     -25.135  24.881  24.359  0.00  0.00     0.064 A 
ATOM      3  C   UNL d   1     -26.377  24.306  24.498  0.00  0.00     0.146 A 
ATOM      4  F   UNL d   1     -27.236  24.773  25.430  0.00  0.00    -0.204 F 
ATOM      5  C   UNL d   1     -26.752  23.240  23.679  0.00  0.00     0.104 A 
ATOM      6  C   UNL d   1     -25.875  22.754  22.719  0.00  0.00     0.073 A 
ATOM      7  C   UNL d   1     -24.624  23.327  22.570  0.00  0.00     0.087 A 
ENDROOT
BRANCH   1   8
ATOM      8  C   UNL d   1     -22.915  25.012  23.241  0.00  0.00     0.259 C 
ATOM      9  N   UNL d   1     -21.845  24.461  23.848  0.00  0.00    -0.320 N 
ATOM     10  H   UNL d   1     -21.933  23.615  24.315  0.00  0.00     0.169 HD
ATOM     11  O   UNL d   1     -22.782  26.017  22.569  0.00  0.00    -0.267 OA
BRANCH   9  12
ATOM     12  C   UNL d   1     -20.605  25.110  23.806  0.00  0.00     0.080 A 
ATOM     13  C   UNL d   1     -20.296  26.084  24.745  0.00  0.00    -0.032 A 
ATOM     14  C   UNL d   1     -21.297  26.446  25.812  0.00  0.00     0.050 C 
ATOM     15  C   UNL d   1     -19.070  26.718  24.702  0.00  0.00     0.009 A 
ATOM     16  C   UNL d   1     -18.152  26.391  23.721  0.00  0.00     0.004 A 
ATOM     17  C   UNL d   1     -18.457  25.425  22.779  0.00  0.00     0.045 A 
ATOM     18  C   UNL d   1     -19.680  24.782  22.818  0.00  0.00     0.143 A 
ATOM     19  F   UNL d   1     -19.978  23.838  21.899  0.00  0.00    -0.204 F 
ENDBRANCH   9  12
ENDBRANCH   1   8
BRANCH   7  20
ATOM     20  O   UNL d   1     -23.766  22.854  21.632  0.00  0.00    -0.336 OA
BRANCH  20  21
ATOM     21  C   UNL d   1     -23.877  23.403  20.317  0.00  0.00     0.232 C 
ATOM     22  C   UNL d   1     -22.490  23.822  19.822  0.00  0.00     0.049 C 
BRANCH  21  23
ATOM     23  C   UNL d   1     -24.458  22.350  19.372  0.00  0.00     0.413 C 
ATOM     24  F   UNL d   1     -23.629  21.223  19.362  0.00  0.00    -0.168 F 
ATOM     25  F   UNL d   1     -25.736  21.984  19.810  0.00  0.00    -0.168 F 
ATOM     26  F   UNL d   1     -24.543  22.878  18.080  0.00  0.00    -0.168 F 
ENDBRANCH  21  23
ENDBRANCH  20  21
ENDBRANCH   7  20
BRANCH   5  27
ATOM     27  N   UNL d   1     -28.012  22.656  23.830  0.00  0.00    -0.178 N 
ATOM     28  C   UNL d   1     -29.012  22.667  22.924  0.00  0.00     0.351 A 
ATOM     29  N   UNL d   1     -30.049  21.992  23.460  0.00  0.00    -0.280 N 
ATOM     30  O   UNL d   1     -28.982  23.187  21.823  0.00  0.00    -0.244 OA
ATOM     31  C   UNL d   1     -29.686  21.568  24.716  0.00  0.00     0.127 A 
ATOM     32  N   UNL d   1     -28.474  21.956  24.953  0.00  0.00    -0.149 NA
ATOM     33  C   UNL d   1     -30.556  20.782  25.661  0.00  0.00     0.093 C 
BRANCH  29  34
ATOM     34  C   UNL d   1     -31.343  21.756  22.816  0.00  0.00     0.088 C 
ATOM     35  C   UNL d   1     -32.414  22.613  23.494  0.00  0.00     0.032 C 
ATOM     36  C   UNL d   1     -31.252  22.129  21.335  0.00  0.00     0.032 C 
ENDBRANCH  29  34
ENDBRANCH   5  27
TORSDOF 7
ENDMDL
