MODEL 1
REMARK VINA RESULT:      -9.2      0.000      0.000
REMARK  6 active torsions:
REMARK  status: ('A' for Active; 'I' for Inactive)
REMARK    1  A    between atoms: C_2  and  C_3 
REMARK    2  A    between atoms: C_6  and  C_7 
REMARK    3  A    between atoms: C_7  and  C_8 
REMARK    4  A    between atoms: C_8  and  C_9 
REMARK    5  A    between atoms: CA_10  and  C_11 
REMARK    6  A    between atoms: C_11  and  OXT_13 
ROOT
ATOM      1  C   UNL d   1     -31.116  21.392  24.612  0.00  0.00     0.044 A 
ATOM      2  CA  UNL d   1     -32.268  20.714  24.367  0.00  0.00     0.122 A 
ATOM      3  N   UNL d   1     -32.570  19.600  25.120  0.00  0.00    -0.302 N 
ATOM      4  H   UNL d   1     -33.392  19.116  24.947  0.00  0.00     0.171 HD
ATOM      5  C   UNL d   1     -31.745  19.171  26.091  0.00  0.00     0.327 A 
ATOM      6  O   UNL d   1     -32.048  18.185  26.732  0.00  0.00    -0.247 OA
ATOM      7  N   UNL d   1     -30.593  19.806  26.371  0.00  0.00    -0.275 N 
ATOM      8  H   UNL d   1     -30.019  19.471  27.078  0.00  0.00     0.173 HD
ATOM      9  C   UNL d   1     -30.229  20.901  25.672  0.00  0.00     0.258 A 
ATOM     10  O   UNL d   1     -29.184  21.474  25.921  0.00  0.00    -0.267 OA
ENDROOT
BRANCH   1  11
ATOM     11  C   UNL d   1     -30.755  22.615  23.807  0.00  0.00     0.051 C 
BRANCH  11  12
ATOM     12  C   UNL d   1     -30.431  22.203  22.370  0.00  0.00     0.043 C 
BRANCH  12  13
ATOM     13  C   UNL d   1     -28.936  22.123  22.195  0.00  0.00    -0.058 A 
ATOM     14  C   UNL d   1     -28.099  22.715  23.124  0.00  0.00     0.007 A 
ATOM     15  C   UNL d   1     -26.729  22.647  22.960  0.00  0.00     0.007 A 
ATOM     16  C   UNL d   1     -26.194  21.977  21.876  0.00  0.00    -0.059 A 
ATOM     17  C   UNL d   1     -27.031  21.385  20.948  0.00  0.00     0.007 A 
ATOM     18  C   UNL d   1     -28.402  21.458  21.109  0.00  0.00     0.007 A 
BRANCH  16  19
ATOM     19  C   UNL d   1     -24.699  21.899  21.701  0.00  0.00     0.034 C 
ATOM     20  C   UNL d   1     -24.349  22.068  20.221  0.00  0.00     0.010 C 
ENDBRANCH  16  19
ENDBRANCH  12  13
ENDBRANCH  11  12
ENDBRANCH   1  11
BRANCH   2  21
ATOM     21  C   UNL d   1     -33.193  21.171  23.302  0.00  0.00     0.194 C 
ATOM     22  O   UNL d   1     -33.453  20.439  22.370  0.00  0.00    -0.645 OA
BRANCH  21  23
ATOM     23  OXT UNL d   1     -33.746  22.397  23.372  0.00  0.00    -0.772 OA
ATOM     24  HXT UNL d   1     -33.600  22.898  24.186  0.00  0.00     0.167 HD
ENDBRANCH  21  23
ENDBRANCH   2  21
TORSDOF 6
ENDMDL
