MODEL 1
REMARK VINA RESULT:      -9.9      0.000      0.000
REMARK  6 active torsions:
REMARK  status: ('A' for Active; 'I' for Inactive)
REMARK    1  A    between atoms: C_2  and  N_3 
REMARK    2  A    between atoms: C_4  and  C_5 
REMARK    3  A    between atoms: C_5  and  O_6 
REMARK    4  A    between atoms: N_8  and  C_9 
REMARK    5  A    between atoms: C_12  and  C_13 
REMARK    6  A    between atoms: N_17  and  C_18 
ROOT
ATOM      1  C   UNL d   1     -26.616  23.212  24.125  0.00  0.00     0.103 A 
ATOM      2  C   UNL d   1     -27.584  22.956  23.168  0.00  0.00     0.048 A 
ATOM      3  C   UNL d   1     -28.795  22.386  23.555  0.00  0.00    -0.010 A 
ATOM      4  C   UNL d   1     -29.856  22.090  22.591  0.00  0.00    -0.027 A 
ATOM      5  C   UNL d   1     -31.003  21.540  23.020  0.00  0.00     0.109 A 
ATOM      6  N   UNL d   1     -31.225  21.242  24.335  0.00  0.00    -0.283 N 
ATOM      7  C   UNL d   1     -30.305  21.479  25.291  0.00  0.00     0.263 A 
ATOM      8  O   UNL d   1     -30.540  21.200  26.453  0.00  0.00    -0.267 OA
ATOM      9  C   UNL d   1     -29.021  22.078  24.919  0.00  0.00     0.046 A 
ATOM     10  C   UNL d   1     -28.030  22.347  25.865  0.00  0.00     0.062 A 
ATOM     11  C   UNL d   1     -26.847  22.906  25.469  0.00  0.00     0.146 A 
ATOM     12  F   UNL d   1     -25.892  23.165  26.387  0.00  0.00    -0.204 F 
ENDROOT
BRANCH   1  13
ATOM     13  N   UNL d   1     -25.401  23.789  23.744  0.00  0.00    -0.178 N 
ATOM     14  N   UNL d   1     -24.272  23.109  23.269  0.00  0.00    -0.147 NA
ATOM     15  C   UNL d   1     -23.349  23.984  23.022  0.00  0.00     0.154 A 
ATOM     16  N   UNL d   1     -23.833  25.234  23.322  0.00  0.00    -0.283 N 
ATOM     17  C   UNL d   1     -25.101  25.104  23.761  0.00  0.00     0.351 A 
ATOM     18  O   UNL d   1     -25.838  26.008  24.112  0.00  0.00    -0.244 OA
BRANCH  15  19
ATOM     19  C   UNL d   1     -21.971  23.679  22.495  0.00  0.00     0.244 C 
BRANCH  19  20
ATOM     20  O   UNL d   1     -21.942  23.896  21.083  0.00  0.00    -0.393 OA
ATOM     21  H   UNL d   1     -21.439  24.677  20.814  0.00  0.00     0.209 HD
ENDBRANCH  19  20
ENDBRANCH  15  19
BRANCH  16  22
ATOM     22  C   UNL d   1     -23.098  26.494  23.182  0.00  0.00     0.131 C 
ATOM     23  C   UNL d   1     -22.376  26.811  24.492  0.00  0.00     0.027 C 
ENDBRANCH  16  22
ENDBRANCH   1  13
BRANCH   4  24
ATOM     24  C   UNL d   1     -29.661  22.399  21.128  0.00  0.00     0.013 C 
ATOM     25  C   UNL d   1     -28.642  21.425  20.532  0.00  0.00     0.015 C 
ATOM     26  C   UNL d   1     -30.994  22.256  20.394  0.00  0.00     0.015 C 
ENDBRANCH   4  24
BRANCH   6  27
ATOM     27  C   UNL d   1     -32.454  20.666  24.703  0.00  0.00     0.108 A 
ATOM     28  C   UNL d   1     -33.684  21.060  24.276  0.00  0.00     0.149 A 
ATOM     29  N   UNL d   1     -34.597  20.252  24.861  0.00  0.00    -0.265 N 
ATOM     30 CL   UNL d   1     -34.020  22.363  23.181  0.00  0.00    -0.060 Cl
ATOM     31  N   UNL d   1     -33.912  19.336  25.669  0.00  0.00    -0.176 NA
ATOM     32  H   UNL d   1     -35.558  20.299  24.742  0.00  0.00     0.190 HD
ATOM     33  C   UNL d   1     -32.630  19.577  25.570  0.00  0.00     0.081 A 
ATOM     34  C   UNL d   1     -31.532  18.820  26.272  0.00  0.00     0.075 C 
ENDBRANCH   6  27
TORSDOF 6
ENDMDL
