MODEL 1
REMARK VINA RESULT:     -12.0      0.000      0.000
REMARK  6 active torsions:
REMARK  status: ('A' for Active; 'I' for Inactive)
REMARK    1  A    between atoms: C_5  and  C_6 
REMARK    2  A    between atoms: C_6  and  O_8 
REMARK    3  A    between atoms: C_10  and  C_11 
REMARK    4  A    between atoms: C_14  and  C_15 
REMARK    5  A    between atoms: C_19  and  C_20 
REMARK    6  A    between atoms: C_20  and  N_21 
ROOT
ATOM      1  C   UNL d   1     -26.687  22.863  23.084  0.00  0.00    -0.026 A 
ATOM      2  C   UNL d   1     -25.883  22.138  22.205  0.00  0.00     0.013 A 
ATOM      3  C   UNL d   1     -24.566  22.495  22.022  0.00  0.00     0.013 A 
ATOM      4  C   UNL d   1     -24.037  23.582  22.716  0.00  0.00    -0.026 A 
ATOM      5  C   UNL d   1     -24.841  24.309  23.594  0.00  0.00     0.013 A 
ATOM      6  C   UNL d   1     -26.158  23.951  23.777  0.00  0.00     0.013 A 
ENDROOT
BRANCH   1   7
ATOM      7  C   UNL d   1     -28.106  22.478  23.280  0.00  0.00    -0.023 A 
ATOM      8  C   UNL d   1     -28.517  21.944  24.501  0.00  0.00     0.033 A 
ATOM      9  C   UNL d   1     -29.846  21.586  24.697  0.00  0.00     0.069 A 
ATOM     10  C   UNL d   1     -30.776  21.753  23.646  0.00  0.00     0.102 A 
ATOM     11  N   UNL d   1     -32.094  21.502  23.528  0.00  0.00    -0.233 NA
ATOM     12  C   UNL d   1     -30.345  22.287  22.419  0.00  0.00     0.064 A 
ATOM     13  C   UNL d   1     -32.503  21.837  22.337  0.00  0.00     0.101 A 
ATOM     14  C   UNL d   1     -33.919  21.700  21.839  0.00  0.00     0.091 C 
ATOM     15  N   UNL d   1     -31.465  22.327  21.609  0.00  0.00    -0.343 N 
ATOM     16  H   UNL d   1     -31.503  22.645  20.694  0.00  0.00     0.167 HD
ATOM     17  C   UNL d   1     -29.019  22.644  22.242  0.00  0.00     0.044 A 
BRANCH   9  18
ATOM     18  C   UNL d   1     -30.281  21.029  25.989  0.00  0.00     0.178 C 
ATOM     19  O   UNL d   1     -30.239  21.716  26.992  0.00  0.00    -0.646 OA
BRANCH  18  20
ATOM     20  O   UNL d   1     -30.725  19.758  26.061  0.00  0.00    -0.773 OA
ATOM     21  H   UNL d   1     -31.113  19.476  26.899  0.00  0.00     0.167 HD
ENDBRANCH  18  20
ENDBRANCH   9  18
ENDBRANCH   1   7
BRANCH   4  22
ATOM     22  C   UNL d   1     -22.617  23.968  22.519  0.00  0.00    -0.025 A 
ATOM     23  C   UNL d   1     -21.802  24.222  23.621  0.00  0.00     0.021 A 
ATOM     24  C   UNL d   1     -20.482  24.575  23.432  0.00  0.00    -0.029 A 
ATOM     25  C   UNL d   1     -19.970  24.687  22.151  0.00  0.00     0.009 A 
ATOM     26  C   UNL d   1     -20.776  24.443  21.054  0.00  0.00     0.001 A 
ATOM     27  C   UNL d   1     -22.097  24.083  21.232  0.00  0.00     0.012 A 
BRANCH  24  28
ATOM     28  C   UNL d   1     -19.598  24.844  24.622  0.00  0.00     0.311 C 
BRANCH  28  29
ATOM     29  N   UNL d   1     -20.244  25.828  25.500  0.00  0.00     0.094 N 
ATOM     30  C   UNL d   1     -20.630  27.027  24.751  0.00  0.00     0.287 C 
ATOM     31  C   UNL d   1     -21.653  27.836  25.555  0.00  0.00     0.170 C 
ATOM     32  S   UNL d   1     -20.872  28.387  27.103  0.00  0.00     0.147 S 
ATOM     33  C   UNL d   1     -20.231  26.812  27.748  0.00  0.00     0.170 C 
ATOM     34  O   UNL d   1     -19.774  29.230  26.784  0.00  0.00    -0.228 OA
ATOM     35  O   UNL d   1     -21.884  28.863  27.979  0.00  0.00    -0.228 OA
ATOM     36  C   UNL d   1     -19.397  26.138  26.654  0.00  0.00     0.287 C 
ENDBRANCH  28  29
ENDBRANCH  24  28
ENDBRANCH   4  22
TORSDOF 6
ENDMDL
