MODEL 1
REMARK VINA RESULT:     -10.0      0.000      0.000
REMARK  7 active torsions:
REMARK  status: ('A' for Active; 'I' for Inactive)
REMARK    1  A    between atoms: C_2  and  O_3 
REMARK    2  A    between atoms: O_3  and  C_4 
REMARK    3  A    between atoms: C_4  and  C_6 
REMARK    4  A    between atoms: C_8  and  N_9 
REMARK    5  A    between atoms: N_9  and  C_10 
REMARK    6  A    between atoms: C_19  and  N_20 
REMARK       I    between atoms: N_20  and  C_21 
REMARK    7  A    between atoms: C_21  and  C_23 
ROOT
ATOM      1  C   UNL d   1     -23.174  23.573  20.792  0.00  0.00     0.129 A 
ATOM      2  S   UNL d   1     -24.333  22.532  19.969  0.00  0.00    -0.042 SA
ATOM      3  C   UNL d   1     -24.911  21.960  21.471  0.00  0.00     0.174 A 
ATOM      4  N   UNL d   1     -24.271  22.520  22.456  0.00  0.00    -0.205 NA
ATOM      5  C   UNL d   1     -23.334  23.388  22.148  0.00  0.00     0.156 A 
ENDROOT
BRANCH   3   6
ATOM      6  N   UNL d   1     -25.919  21.032  21.621  0.00  0.00    -0.335 N 
ATOM      7  H   UNL d   1     -25.755  20.099  21.413  0.00  0.00     0.168 HD
BRANCH   6   8
ATOM      8  C   UNL d   1     -27.180  21.436  22.070  0.00  0.00     0.034 A 
ATOM      9  C   UNL d   1     -28.198  21.682  21.158  0.00  0.00     0.036 A 
ATOM     10  C   UNL d   1     -29.444  22.076  21.605  0.00  0.00    -0.054 A 
ATOM     11  C   UNL d   1     -29.676  22.232  22.959  0.00  0.00    -0.056 A 
ATOM     12  C   UNL d   1     -30.550  22.339  20.616  0.00  0.00     0.049 C 
ATOM     13  C   UNL d   1     -28.663  21.991  23.870  0.00  0.00     0.009 A 
ATOM     14  C   UNL d   1     -31.035  22.666  23.443  0.00  0.00     0.049 C 
ATOM     15  C   UNL d   1     -27.417  21.594  23.430  0.00  0.00     0.030 A 
ENDBRANCH   6   8
ENDBRANCH   3   6
BRANCH   1  16
ATOM     16  C   UNL d   1     -22.245  24.435  20.174  0.00  0.00     0.304 C 
ATOM     17  O   UNL d   1     -22.635  25.415  19.565  0.00  0.00    -0.259 OA
BRANCH  16  18
ATOM     18  O   UNL d   1     -20.923  24.175  20.260  0.00  0.00    -0.317 OA
BRANCH  18  19
ATOM     19  C   UNL d   1     -20.138  25.060  21.063  0.00  0.00     0.174 C 
ATOM     20  C   UNL d   1     -19.212  24.244  21.966  0.00  0.00     0.034 C 
ENDBRANCH  18  19
ENDBRANCH  16  18
ENDBRANCH   1  16
BRANCH   5  21
ATOM     21  N   UNL d   1     -22.576  24.058  23.102  0.00  0.00    -0.306 N 
ATOM     22  C   UNL d   1     -22.874  25.330  23.430  0.00  0.00     0.257 C 
ATOM     23  O   UNL d   1     -23.808  25.894  22.890  0.00  0.00    -0.267 OA
ATOM     24  H   UNL d   1     -21.831  23.608  23.532  0.00  0.00     0.170 HD
BRANCH  22  25
ATOM     25  C   UNL d   1     -22.069  26.042  24.444  0.00  0.00     0.032 A 
ATOM     26  C   UNL d   1     -20.957  25.423  25.017  0.00  0.00     0.017 A 
ATOM     27  C   UNL d   1     -20.209  26.092  25.964  0.00  0.00     0.001 A 
ATOM     28  C   UNL d   1     -20.560  27.375  26.344  0.00  0.00     0.000 A 
ATOM     29  C   UNL d   1     -21.661  27.995  25.780  0.00  0.00     0.001 A 
ATOM     30  C   UNL d   1     -22.413  27.339  24.829  0.00  0.00     0.017 A 
ENDBRANCH  22  25
ENDBRANCH   5  21
TORSDOF 7
ENDMDL
