MODEL 1
REMARK VINA RESULT:     -10.4      0.000      0.000
REMARK  6 active torsions:
REMARK  status: ('A' for Active; 'I' for Inactive)
REMARK    1  A    between atoms: C_2  and  O_3 
REMARK    2  A    between atoms: C_2  and  C_33 
REMARK    3  A    between atoms: O_3  and  C_4 
REMARK    4  A    between atoms: C_6  and  N_7 
REMARK    5  A    between atoms: C_21  and  C_22 
REMARK       I    between atoms: C_22  and  N_24 
REMARK    6  A    between atoms: N_24  and  C_25 
ROOT
ATOM      1  C   UNL d   1     -24.377  23.588  22.758  0.00  0.00     0.087 A 
ATOM      2  C   UNL d   1     -25.617  22.974  22.813  0.00  0.00     0.073 A 
ATOM      3  C   UNL d   1     -26.581  23.435  23.699  0.00  0.00     0.104 A 
ATOM      4  C   UNL d   1     -26.306  24.515  24.537  0.00  0.00     0.146 A 
ATOM      5  F   UNL d   1     -27.249  24.958  25.398  0.00  0.00    -0.204 F 
ATOM      6  C   UNL d   1     -25.074  25.129  24.494  0.00  0.00     0.064 A 
ATOM      7  C   UNL d   1     -24.098  24.675  23.600  0.00  0.00     0.068 A 
ENDROOT
BRANCH   7   8
ATOM      8  C   UNL d   1     -22.782  25.331  23.548  0.00  0.00     0.259 C 
ATOM      9  O   UNL d   1     -22.645  26.373  22.935  0.00  0.00    -0.267 OA
ATOM     10  N   UNL d   1     -21.727  24.777  24.178  0.00  0.00    -0.319 N 
ATOM     11  H   UNL d   1     -21.852  23.994  24.735  0.00  0.00     0.169 HD
BRANCH  10  12
ATOM     12  C   UNL d   1     -20.451  25.336  24.033  0.00  0.00     0.096 A 
ATOM     13  C   UNL d   1     -19.999  26.285  24.941  0.00  0.00     0.064 A 
ATOM     14  C   UNL d   1     -18.736  26.831  24.798  0.00  0.00     0.026 A 
ATOM     15 CL   UNL d   1     -21.014  26.778  26.260  0.00  0.00    -0.082 Cl
ATOM     16  C   UNL d   1     -17.930  26.443  23.744  0.00  0.00     0.005 A 
ATOM     17  C   UNL d   1     -18.378  25.504  22.833  0.00  0.00     0.045 A 
ATOM     18  C   UNL d   1     -19.637  24.949  22.974  0.00  0.00     0.144 A 
ATOM     19  F   UNL d   1     -20.075  24.031  22.084  0.00  0.00    -0.204 F 
ENDBRANCH  10  12
ENDBRANCH   7   8
BRANCH   1  20
ATOM     20  O   UNL d   1     -23.434  23.138  21.892  0.00  0.00    -0.336 OA
BRANCH  20  21
ATOM     21  C   UNL d   1     -23.674  23.355  20.501  0.00  0.00     0.232 C 
ATOM     22  C   UNL d   1     -22.359  23.714  19.806  0.00  0.00     0.049 C 
BRANCH  21  23
ATOM     23  C   UNL d   1     -24.249  22.082  19.877  0.00  0.00     0.413 C 
ATOM     24  F   UNL d   1     -24.070  21.010  20.757  0.00  0.00    -0.168 F 
ATOM     25  F   UNL d   1     -25.615  22.260  19.630  0.00  0.00    -0.168 F 
ATOM     26  F   UNL d   1     -23.589  21.814  18.674  0.00  0.00    -0.168 F 
ENDBRANCH  21  23
ENDBRANCH  20  21
ENDBRANCH   1  20
BRANCH   3  27
ATOM     27  N   UNL d   1     -27.831  22.815  23.752  0.00  0.00    -0.178 N 
ATOM     28  C   UNL d   1     -28.298  22.038  24.756  0.00  0.00     0.351 A 
ATOM     29  N   UNL d   1     -29.531  21.650  24.419  0.00  0.00    -0.282 N 
ATOM     30  O   UNL d   1     -27.704  21.747  25.779  0.00  0.00    -0.244 OA
ATOM     31  C   UNL d   1     -29.834  22.186  23.176  0.00  0.00     0.155 A 
ATOM     32  C   UNL d   1     -30.480  20.805  25.161  0.00  0.00     0.137 C 
ATOM     33  N   UNL d   1     -28.833  22.879  22.771  0.00  0.00    -0.147 NA
ATOM     34  C   UNL d   1     -31.161  21.930  22.488  0.00  0.00     0.248 C 
ATOM     35  O   UNL d   1     -32.182  22.543  23.282  0.00  0.00    -0.384 OA
ATOM     36  C   UNL d   1     -32.655  21.798  24.384  0.00  0.00     0.169 C 
ATOM     37  C   UNL d   1     -31.684  21.679  25.536  0.00  0.00     0.046 C 
ENDBRANCH   3  27
TORSDOF 6
ENDMDL
