MODEL 1
REMARK VINA RESULT:     -11.8      0.000      0.000
REMARK  5 active torsions:
REMARK  status: ('A' for Active; 'I' for Inactive)
REMARK    1  A    between atoms: C_4  and  O_5 
REMARK    2  A    between atoms: O_5  and  C_6 
REMARK    3  A    between atoms: C_15  and  N_16 
REMARK       I    between atoms: N_16  and  C_17 
REMARK    4  A    between atoms: C_17  and  C_19 
REMARK    5  A    between atoms: C_20  and  O_21 
ROOT
ATOM      1  C   UNL d   1     -27.012  23.516  25.564  0.00  0.00     0.050 C 
ATOM      2  C   UNL d   1     -26.428  23.080  24.244  0.00  0.00    -0.033 A 
ATOM      3  C   UNL d   1     -25.233  23.619  23.806  0.00  0.00     0.047 A 
ATOM      4  C   UNL d   1     -24.696  23.217  22.593  0.00  0.00     0.082 A 
ATOM      5  C   UNL d   1     -25.357  22.275  21.818  0.00  0.00    -0.026 A 
ATOM      6  C   UNL d   1     -24.771  21.839  20.499  0.00  0.00     0.051 C 
ATOM      7  C   UNL d   1     -26.547  21.732  22.257  0.00  0.00     0.039 A 
ATOM      8  C   UNL d   1     -27.089  22.137  23.470  0.00  0.00     0.041 A 
ENDROOT
BRANCH   8   9
ATOM      9  N   UNL d   1     -28.300  21.590  23.914  0.00  0.00    -0.322 N 
ATOM     10  C   UNL d   1     -29.468  22.166  23.564  0.00  0.00     0.263 C 
ATOM     11  O   UNL d   1     -29.469  23.218  22.952  0.00  0.00    -0.267 OA
ATOM     12  H   UNL d   1     -28.297  20.798  24.475  0.00  0.00     0.169 HD
BRANCH  10  13
ATOM     13  C   UNL d   1     -30.734  21.524  23.920  0.00  0.00     0.115 A 
ATOM     14  C   UNL d   1     -31.894  21.454  23.124  0.00  0.00     0.078 A 
ATOM     15  N   UNL d   1     -32.832  20.769  23.843  0.00  0.00    -0.242 N 
ATOM     16  C   UNL d   1     -32.198  21.931  21.842  0.00  0.00     0.033 A 
ATOM     17  N   UNL d   1     -32.262  20.417  25.073  0.00  0.00    -0.141 NA
ATOM     18  C   UNL d   1     -34.067  20.547  23.316  0.00  0.00     0.119 A 
ATOM     19  C   UNL d   1     -31.026  20.852  25.126  0.00  0.00     0.200 A 
ATOM     20  C   UNL d   1     -34.383  20.999  22.081  0.00  0.00     0.019 A 
ATOM     21  C   UNL d   1     -33.440  21.703  21.322  0.00  0.00     0.004 A 
BRANCH  19  22
ATOM     22  O   UNL d   1     -30.171  20.685  26.167  0.00  0.00    -0.343 OA
ATOM     23  H   UNL d   1     -30.103  21.456  26.747  0.00  0.00     0.219 HD
ENDBRANCH  19  22
ENDBRANCH  10  13
ENDBRANCH   8   9
BRANCH   4  24
ATOM     24  O   UNL d   1     -23.520  23.748  22.162  0.00  0.00    -0.310 OA
BRANCH  24  25
ATOM     25  C   UNL d   1     -22.908  24.668  22.951  0.00  0.00     0.076 A 
ATOM     26  C   UNL d   1     -21.781  24.317  23.682  0.00  0.00     0.037 A 
ATOM     27  C   UNL d   1     -21.160  25.255  24.484  0.00  0.00     0.003 A 
ATOM     28  C   UNL d   1     -21.660  26.541  24.560  0.00  0.00     0.000 A 
ATOM     29  C   UNL d   1     -22.783  26.894  23.833  0.00  0.00     0.003 A 
ATOM     30  C   UNL d   1     -23.404  25.961  23.025  0.00  0.00     0.037 A 
ENDBRANCH  24  25
ENDBRANCH   4  24
TORSDOF 5
ENDMDL
