MODEL 1
REMARK VINA RESULT:     -10.5      0.000      0.000
REMARK  7 active torsions:
REMARK  status: ('A' for Active; 'I' for Inactive)
REMARK    1  A    between atoms: C_2  and  C_3 
REMARK    2  A    between atoms: C_3  and  C_4 
REMARK    3  A    between atoms: C_4  and  O_6 
REMARK    4  A    between atoms: O_6  and  C_7 
REMARK    5  A    between atoms: C_9  and  N_10 
REMARK    6  A    between atoms: C_23  and  C_24 
REMARK       I    between atoms: C_24  and  N_26 
REMARK    7  A    between atoms: N_26  and  C_27 
ROOT
ATOM      1  C   UNL d   1     -26.160  23.197  23.295  0.00  0.00     0.087 A 
ATOM      2  C   UNL d   1     -27.537  23.056  23.349  0.00  0.00     0.073 A 
ATOM      3  C   UNL d   1     -28.185  22.220  22.450  0.00  0.00     0.104 A 
ATOM      4  C   UNL d   1     -27.456  21.524  21.486  0.00  0.00     0.146 A 
ATOM      5  F   UNL d   1     -28.094  20.713  20.614  0.00  0.00    -0.204 F 
ATOM      6  C   UNL d   1     -26.088  21.662  21.420  0.00  0.00     0.064 A 
ATOM      7  C   UNL d   1     -25.426  22.503  22.323  0.00  0.00     0.068 A 
ENDROOT
BRANCH   7   8
ATOM      8  C   UNL d   1     -23.962  22.654  22.255  0.00  0.00     0.259 C 
ATOM      9  O   UNL d   1     -23.244  21.680  22.384  0.00  0.00    -0.267 OA
ATOM     10  N   UNL d   1     -23.419  23.870  22.050  0.00  0.00    -0.319 N 
ATOM     11  H   UNL d   1     -23.990  24.631  21.864  0.00  0.00     0.169 HD
BRANCH  10  12
ATOM     12  C   UNL d   1     -22.029  24.034  22.102  0.00  0.00     0.096 A 
ATOM     13  C   UNL d   1     -21.307  24.232  20.933  0.00  0.00     0.064 A 
ATOM     14  C   UNL d   1     -19.936  24.400  20.989  0.00  0.00     0.026 A 
ATOM     15 CL   UNL d   1     -22.126  24.277  19.402  0.00  0.00    -0.082 Cl
ATOM     16  C   UNL d   1     -19.282  24.358  22.206  0.00  0.00     0.005 A 
ATOM     17  C   UNL d   1     -19.996  24.154  23.373  0.00  0.00     0.045 A 
ATOM     18  C   UNL d   1     -21.369  23.992  23.325  0.00  0.00     0.144 A 
ATOM     19  F   UNL d   1     -22.066  23.793  24.465  0.00  0.00    -0.204 F 
ENDBRANCH  10  12
ENDBRANCH   7   8
BRANCH   1  20
ATOM     20  O   UNL d   1     -25.525  24.009  24.176  0.00  0.00    -0.345 OA
BRANCH  20  21
ATOM     21  C   UNL d   1     -25.825  25.405  24.106  0.00  0.00     0.124 C 
ATOM     22  C   UNL d   1     -26.248  25.906  25.488  0.00  0.00     0.040 C 
BRANCH  21  23
ATOM     23  C   UNL d   1     -24.583  26.170  23.644  0.00  0.00     0.032 C 
BRANCH  23  24
ATOM     24  C   UNL d   1     -23.683  26.456  24.847  0.00  0.00    -0.002 C 
ATOM     25  C   UNL d   1     -22.409  27.163  24.376  0.00  0.00     0.005 C 
ENDBRANCH  23  24
ENDBRANCH  21  23
ENDBRANCH  20  21
ENDBRANCH   1  20
BRANCH   3  26
ATOM     26  N   UNL d   1     -29.574  22.075  22.512  0.00  0.00    -0.178 N 
ATOM     27  C   UNL d   1     -30.295  21.740  23.604  0.00  0.00     0.351 A 
ATOM     28  N   UNL d   1     -31.589  21.736  23.243  0.00  0.00    -0.284 N 
ATOM     29  O   UNL d   1     -29.854  21.487  24.711  0.00  0.00    -0.244 OA
ATOM     30  C   UNL d   1     -31.666  22.039  21.899  0.00  0.00     0.131 A 
ATOM     31  C   UNL d   1     -32.754  21.488  24.099  0.00  0.00     0.135 C 
ATOM     32  N   UNL d   1     -30.475  22.257  21.454  0.00  0.00    -0.149 NA
ATOM     33  C   UNL d   1     -32.960  22.078  21.121  0.00  0.00     0.081 C 
ATOM     34  C   UNL d   1     -34.114  22.201  22.125  0.00  0.00     0.009 C 
ATOM     35  C   UNL d   1     -33.950  21.131  23.210  0.00  0.00     0.021 C 
ENDBRANCH   3  26
TORSDOF 7
ENDMDL
