MODEL 1
REMARK VINA RESULT:     -11.7      0.000      0.000
REMARK  4 active torsions:
REMARK  status: ('A' for Active; 'I' for Inactive)
REMARK    1  A    between atoms: C_3  and  C_4 
REMARK    2  A    between atoms: C_7  and  C_8 
REMARK    3  A    between atoms: C_24  and  C_25 
REMARK    4  A    between atoms: C_25  and  O_27 
ROOT
ATOM      1  C   UNL d   1     -27.916  21.893  25.552  0.00  0.00     0.052 C 
ATOM      2  C   UNL d   1     -28.818  21.984  24.349  0.00  0.00    -0.015 A 
ATOM      3  C   UNL d   1     -28.306  22.399  23.108  0.00  0.00     0.074 A 
ATOM      4  N   UNL d   1     -29.057  22.492  22.030  0.00  0.00    -0.245 NA
ATOM      5  C   UNL d   1     -30.356  22.200  22.043  0.00  0.00     0.086 A 
ATOM      6  C   UNL d   1     -31.153  22.301  20.887  0.00  0.00     0.148 A 
ATOM      7  N   UNL d   1     -32.429  22.003  20.942  0.00  0.00    -0.271 NA
ATOM      8  C   UNL d   1     -33.026  21.600  22.055  0.00  0.00     0.117 A 
ATOM      9  C   UNL d   1     -32.342  21.469  23.229  0.00  0.00     0.034 A 
ATOM     10  C   UNL d   1     -30.975  21.770  23.245  0.00  0.00     0.013 A 
ATOM     11  C   UNL d   1     -30.163  21.659  24.456  0.00  0.00     0.058 A 
ENDROOT
BRANCH   3  12
ATOM     12  C   UNL d   1     -26.867  22.742  23.008  0.00  0.00    -0.007 A 
ATOM     13  C   UNL d   1     -26.007  21.935  22.264  0.00  0.00     0.014 A 
ATOM     14  C   UNL d   1     -24.671  22.254  22.171  0.00  0.00     0.013 A 
ATOM     15  C   UNL d   1     -24.178  23.386  22.822  0.00  0.00    -0.023 A 
ATOM     16  C   UNL d   1     -25.038  24.193  23.566  0.00  0.00     0.013 A 
ATOM     17  C   UNL d   1     -26.375  23.877  23.654  0.00  0.00     0.014 A 
BRANCH  15  18
ATOM     18  C   UNL d   1     -22.739  23.729  22.721  0.00  0.00     0.015 A 
ATOM     19  C   UNL d   1     -22.191  24.145  21.507  0.00  0.00     0.136 A 
ATOM     20  N   UNL d   1     -20.913  24.455  21.421  0.00  0.00    -0.248 NA
ATOM     21 CL   UNL d   1     -23.203  24.263  20.103  0.00  0.00    -0.061 Cl
ATOM     22  C   UNL d   1     -20.104  24.376  22.460  0.00  0.00     0.118 A 
ATOM     23  C   UNL d   1     -20.571  23.966  23.696  0.00  0.00     0.020 A 
ATOM     24  C   UNL d   1     -21.907  23.635  23.841  0.00  0.00     0.017 A 
ENDBRANCH  15  18
ENDBRANCH   3  12
BRANCH  11  25
ATOM     25  C   UNL d   1     -30.750  21.217  25.738  0.00  0.00     0.177 C 
ATOM     26  O   UNL d   1     -31.354  22.008  26.435  0.00  0.00    -0.646 OA
BRANCH  25  27
ATOM     27  O   UNL d   1     -30.614  19.937  26.137  0.00  0.00    -0.773 OA
ATOM     28  H   UNL d   1     -31.064  19.681  26.953  0.00  0.00     0.167 HD
ENDBRANCH  25  27
ENDBRANCH  11  25
TORSDOF 4
ENDMDL
