MODEL 1
REMARK VINA RESULT:     -10.6      0.000      0.000
REMARK  7 active torsions:
REMARK  status: ('A' for Active; 'I' for Inactive)
REMARK    1  A    between atoms: C_2  and  O_3 
REMARK    2  A    between atoms: C_2  and  C_34 
REMARK    3  A    between atoms: O_3  and  C_4 
REMARK    4  A    between atoms: C_6  and  N_7 
REMARK    5  A    between atoms: C_21  and  C_22 
REMARK       I    between atoms: C_22  and  N_24 
REMARK    6  A    between atoms: N_24  and  C_25 
REMARK    7  A    between atoms: C_30  and  C_31 
ROOT
ATOM      1  C   UNL d   1     -24.411  23.637  22.776  0.00  0.00     0.087 A 
ATOM      2  C   UNL d   1     -25.646  23.014  22.832  0.00  0.00     0.073 A 
ATOM      3  C   UNL d   1     -26.609  23.460  23.726  0.00  0.00     0.104 A 
ATOM      4  C   UNL d   1     -26.337  24.531  24.577  0.00  0.00     0.146 A 
ATOM      5  F   UNL d   1     -27.280  24.958  25.444  0.00  0.00    -0.204 F 
ATOM      6  C   UNL d   1     -25.110  25.154  24.534  0.00  0.00     0.064 A 
ATOM      7  C   UNL d   1     -24.133  24.711  23.635  0.00  0.00     0.068 A 
ENDROOT
BRANCH   7   8
ATOM      8  C   UNL d   1     -22.819  25.375  23.587  0.00  0.00     0.259 C 
ATOM      9  O   UNL d   1     -22.712  26.474  23.077  0.00  0.00    -0.267 OA
ATOM     10  N   UNL d   1     -21.736  24.766  24.107  0.00  0.00    -0.322 N 
ATOM     11  H   UNL d   1     -21.809  23.865  24.460  0.00  0.00     0.169 HD
BRANCH  10  12
ATOM     12  C   UNL d   1     -20.506  25.431  24.138  0.00  0.00     0.046 A 
ATOM     13  C   UNL d   1     -19.588  25.245  23.112  0.00  0.00     0.032 A 
ATOM     14  C   UNL d   1     -18.372  25.900  23.150  0.00  0.00     0.015 A 
ATOM     15  C   UNL d   1     -18.074  26.749  24.200  0.00  0.00     0.001 A 
ATOM     16  C   UNL d   1     -18.987  26.936  25.222  0.00  0.00     0.002 A 
ATOM     17  C   UNL d   1     -20.201  26.280  25.195  0.00  0.00     0.030 A 
BRANCH  13  18
ATOM     18  C   UNL d   1     -19.915  24.325  21.966  0.00  0.00     0.389 C 
ATOM     19  F   UNL d   1     -18.789  24.178  21.149  0.00  0.00    -0.209 F 
ATOM     20  F   UNL d   1     -20.295  23.074  22.465  0.00  0.00    -0.209 F 
ENDBRANCH  13  18
ENDBRANCH  10  12
ENDBRANCH   7   8
BRANCH   1  21
ATOM     21  O   UNL d   1     -23.470  23.207  21.899  0.00  0.00    -0.336 OA
BRANCH  21  22
ATOM     22  C   UNL d   1     -23.749  23.389  20.509  0.00  0.00     0.232 C 
ATOM     23  C   UNL d   1     -22.465  23.790  19.779  0.00  0.00     0.049 C 
BRANCH  22  24
ATOM     24  C   UNL d   1     -24.282  22.080  19.920  0.00  0.00     0.413 C 
ATOM     25  F   UNL d   1     -24.115  21.049  20.850  0.00  0.00    -0.168 F 
ATOM     26  F   UNL d   1     -25.640  22.223  19.620  0.00  0.00    -0.168 F 
ATOM     27  F   UNL d   1     -23.576  21.772  18.752  0.00  0.00    -0.168 F 
ENDBRANCH  22  24
ENDBRANCH  21  22
ENDBRANCH   1  21
BRANCH   3  28
ATOM     28  N   UNL d   1     -27.856  22.831  23.775  0.00  0.00    -0.178 N 
ATOM     29  C   UNL d   1     -28.318  22.048  24.776  0.00  0.00     0.351 A 
ATOM     30  N   UNL d   1     -29.548  21.652  24.437  0.00  0.00    -0.282 N 
ATOM     31  O   UNL d   1     -27.724  21.758  25.799  0.00  0.00    -0.244 OA
ATOM     32  C   UNL d   1     -29.853  22.190  23.193  0.00  0.00     0.155 A 
ATOM     33  C   UNL d   1     -30.492  20.798  25.174  0.00  0.00     0.137 C 
ATOM     34  N   UNL d   1     -28.857  22.892  22.792  0.00  0.00    -0.147 NA
ATOM     35  C   UNL d   1     -31.177  21.927  22.504  0.00  0.00     0.248 C 
ATOM     36  O   UNL d   1     -32.204  22.530  23.298  0.00  0.00    -0.384 OA
ATOM     37  C   UNL d   1     -32.673  21.779  24.397  0.00  0.00     0.169 C 
ATOM     38  C   UNL d   1     -31.703  21.662  25.550  0.00  0.00     0.046 C 
ENDBRANCH   3  28
TORSDOF 7
ENDMDL
