MODEL 1
REMARK VINA RESULT:     -12.9      0.000      0.000
REMARK  4 active torsions:
REMARK  status: ('A' for Active; 'I' for Inactive)
REMARK    1  A    between atoms: C_2  and  O_3 
REMARK    2  A    between atoms: C_2  and  C_4 
REMARK    3  A    between atoms: C_10  and  C_11 
REMARK    4  A    between atoms: C_16  and  C_17 
ROOT
ATOM      1  C   UNL d   1     -26.903  22.641  23.198  0.00  0.00     0.093 A 
ATOM      2  C   UNL d   1     -26.244  21.906  22.207  0.00  0.00     0.173 A 
ATOM      3  F   UNL d   1     -26.853  20.844  21.637  0.00  0.00    -0.202 F 
ATOM      4  C   UNL d   1     -24.972  22.269  21.810  0.00  0.00     0.170 A 
ATOM      5  F   UNL d   1     -24.337  21.561  20.850  0.00  0.00    -0.202 F 
ATOM      6  C   UNL d   1     -24.339  23.362  22.404  0.00  0.00     0.058 A 
ATOM      7  C   UNL d   1     -24.994  24.093  23.397  0.00  0.00     0.170 A 
ATOM      8  F   UNL d   1     -24.380  25.152  23.972  0.00  0.00    -0.202 F 
ATOM      9  C   UNL d   1     -26.268  23.736  23.794  0.00  0.00     0.173 A 
ATOM     10  F   UNL d   1     -26.901  24.444  24.754  0.00  0.00    -0.202 F 
ENDROOT
BRANCH   1  11
ATOM     11  C   UNL d   1     -28.265  22.257  23.621  0.00  0.00     0.145 A 
ATOM     12  N   UNL d   1     -28.586  21.800  24.807  0.00  0.00    -0.228 NA
ATOM     13  C   UNL d   1     -29.918  21.548  24.849  0.00  0.00     0.087 A 
ATOM     14  C   UNL d   1     -30.768  21.048  25.841  0.00  0.00     0.034 A 
ATOM     15  C   UNL d   1     -30.446  21.891  23.592  0.00  0.00     0.080 A 
ATOM     16  C   UNL d   1     -32.115  20.898  25.586  0.00  0.00     0.003 A 
ATOM     17  C   UNL d   1     -32.644  21.238  24.355  0.00  0.00     0.021 A 
ATOM     18  C   UNL d   1     -31.817  21.739  23.348  0.00  0.00     0.066 A 
ATOM     19  N   UNL d   1     -29.386  22.339  22.837  0.00  0.00    -0.337 N 
ATOM     20  H   UNL d   1     -29.425  22.652  21.921  0.00  0.00     0.167 HD
BRANCH  18  21
ATOM     21  C   UNL d   1     -32.382  22.101  22.036  0.00  0.00     0.178 C 
ATOM     22  O   UNL d   1     -31.662  22.153  21.058  0.00  0.00    -0.646 OA
BRANCH  21  23
ATOM     23  O   UNL d   1     -33.696  22.375  21.920  0.00  0.00    -0.773 OA
ATOM     24  H   UNL d   1     -33.946  23.081  21.308  0.00  0.00     0.167 HD
ENDBRANCH  21  23
ENDBRANCH  18  21
ENDBRANCH   1  11
BRANCH   6  25
ATOM     25  C   UNL d   1     -22.971  23.747  21.980  0.00  0.00    -0.017 A 
ATOM     26  C   UNL d   1     -22.782  24.477  20.808  0.00  0.00     0.054 A 
ATOM     27  C   UNL d   1     -21.505  24.837  20.420  0.00  0.00     0.117 A 
ATOM     28  C   UNL d   1     -20.415  24.464  21.190  0.00  0.00     0.042 A 
ATOM     29  F   UNL d   1     -21.320  25.549  19.287  0.00  0.00    -0.206 F 
ATOM     30  C   UNL d   1     -20.599  23.734  22.350  0.00  0.00     0.004 A 
ATOM     31  C   UNL d   1     -21.870  23.374  22.750  0.00  0.00     0.012 A 
ENDBRANCH   6  25
TORSDOF 4
ENDMDL
