MODEL 1
REMARK VINA RESULT:     -12.7      0.000      0.000
REMARK  3 active torsions:
REMARK  status: ('A' for Active; 'I' for Inactive)
REMARK    1  A    between atoms: N_1  and  C_2 
REMARK    2  A    between atoms: C_6  and  C_7 
REMARK    3  A    between atoms: C_10  and  N_11 
ROOT
ATOM      1  C   UNL d   1     -24.693  23.557  22.633  0.00  0.00    -0.026 A 
ATOM      2  C   UNL d   1     -25.255  22.314  22.340  0.00  0.00     0.014 A 
ATOM      3  C   UNL d   1     -26.373  21.886  23.024  0.00  0.00     0.032 A 
ATOM      4  C   UNL d   1     -26.946  22.696  23.997  0.00  0.00     0.060 A 
ATOM      5  C   UNL d   1     -26.391  23.937  24.288  0.00  0.00     0.032 A 
ATOM      6  C   UNL d   1     -25.270  24.367  23.610  0.00  0.00     0.014 A 
ENDROOT
BRANCH   4   7
ATOM      7  N   UNL d   1     -28.082  22.262  24.685  0.00  0.00    -0.209 N 
ATOM      8  C   UNL d   1     -29.324  22.089  24.152  0.00  0.00     0.146 A 
ATOM      9  C   UNL d   1     -30.124  21.651  25.200  0.00  0.00     0.164 A 
ATOM     10  C   UNL d   1     -29.889  22.269  22.807  0.00  0.00     0.214 A 
ATOM     11  N   UNL d   1     -29.325  21.590  26.273  0.00  0.00    -0.125 NA
ATOM     12  C   UNL d   1     -31.553  21.362  24.975  0.00  0.00     0.216 A 
ATOM     13  N   UNL d   1     -28.137  21.949  25.935  0.00  0.00    -0.059 NA
ATOM     14  C   UNL d   1     -32.133  21.540  23.625  0.00  0.00     0.031 A 
ATOM     15  O   UNL d   1     -32.251  20.979  25.893  0.00  0.00    -0.285 OA
ATOM     16  C   UNL d   1     -31.320  21.983  22.567  0.00  0.00     0.031 A 
ATOM     17  C   UNL d   1     -33.479  21.272  23.397  0.00  0.00     0.016 A 
ATOM     18  C   UNL d   1     -31.869  22.150  21.299  0.00  0.00     0.016 A 
ATOM     19  C   UNL d   1     -33.211  21.879  21.087  0.00  0.00     0.001 A 
ATOM     20  C   UNL d   1     -34.010  21.443  22.128  0.00  0.00     0.001 A 
ATOM     21  O   UNL d   1     -29.182  22.653  21.896  0.00  0.00    -0.285 OA
ENDBRANCH   4   7
BRANCH   1  22
ATOM     22  C   UNL d   1     -23.488  24.018  21.902  0.00  0.00    -0.024 A 
ATOM     23  C   UNL d   1     -23.411  23.872  20.518  0.00  0.00     0.012 A 
ATOM     24  C   UNL d   1     -22.287  24.301  19.840  0.00  0.00     0.003 A 
ATOM     25  C   UNL d   1     -21.234  24.871  20.530  0.00  0.00     0.029 A 
ATOM     26  C   UNL d   1     -21.304  25.024  21.909  0.00  0.00     0.026 A 
ATOM     27  C   UNL d   1     -22.429  24.596  22.598  0.00  0.00     0.041 A 
BRANCH  26  28
ATOM     28  N   UNL d   1     -20.239  25.604  22.603  0.00  0.00    -0.399 N 
ATOM     29  H   UNL d   1     -20.332  26.493  22.980  0.00  0.00     0.156 HD
ATOM     30  H   UNL d   1     -19.405  25.119  22.707  0.00  0.00     0.156 HD
ENDBRANCH  26  28
ENDBRANCH   1  22
TORSDOF 3
ENDMDL
