MODEL 1
REMARK VINA RESULT:     -11.6      0.000      0.000
REMARK  4 active torsions:
REMARK  status: ('A' for Active; 'I' for Inactive)
REMARK    1  A    between atoms: C_2  and  O_3 
REMARK    2  A    between atoms: C_2  and  C_4 
REMARK    3  A    between atoms: C_6  and  C_7 
REMARK    4  A    between atoms: C_10  and  C_11 
ROOT
ATOM      1  C   UNL d   1     -30.465  21.441  24.588  0.00  0.00     0.052 A 
ATOM      2  C   UNL d   1     -29.125  21.752  24.402  0.00  0.00     0.051 A 
ATOM      3  C   UNL d   1     -28.690  22.197  23.144  0.00  0.00     0.068 A 
ATOM      4  N   UNL d   1     -29.510  22.332  22.123  0.00  0.00    -0.247 NA
ATOM      5  C   UNL d   1     -30.812  22.056  22.212  0.00  0.00     0.068 A 
ATOM      6  C   UNL d   1     -31.664  22.209  21.103  0.00  0.00     0.032 A 
ATOM      7  C   UNL d   1     -32.989  21.919  21.225  0.00  0.00     0.002 A 
ATOM      8  C   UNL d   1     -33.519  21.471  22.433  0.00  0.00     0.001 A 
ATOM      9  C   UNL d   1     -32.723  21.309  23.528  0.00  0.00     0.015 A 
ATOM     10  C   UNL d   1     -31.356  21.598  23.439  0.00  0.00     0.010 A 
ENDROOT
BRANCH   3  11
ATOM     11  C   UNL d   1     -27.257  22.527  22.958  0.00  0.00    -0.007 A 
ATOM     12  C   UNL d   1     -26.659  23.511  23.745  0.00  0.00     0.014 A 
ATOM     13  C   UNL d   1     -25.327  23.817  23.572  0.00  0.00     0.014 A 
ATOM     14  C   UNL d   1     -24.577  23.142  22.609  0.00  0.00    -0.007 A 
ATOM     15  C   UNL d   1     -25.175  22.158  21.822  0.00  0.00     0.014 A 
ATOM     16  C   UNL d   1     -26.505  21.849  21.998  0.00  0.00     0.014 A 
BRANCH  14  17
ATOM     17  C   UNL d   1     -23.143  23.472  22.421  0.00  0.00     0.066 A 
ATOM     18  N   UNL d   1     -22.718  23.912  21.243  0.00  0.00    -0.260 NA
ATOM     19  C   UNL d   1     -21.454  24.220  21.037  0.00  0.00     0.117 A 
ATOM     20  C   UNL d   1     -20.517  24.086  22.044  0.00  0.00     0.019 A 
ATOM     21  C   UNL d   1     -20.918  23.625  23.290  0.00  0.00     0.004 A 
ATOM     22  C   UNL d   1     -22.252  23.314  23.481  0.00  0.00     0.032 A 
ENDBRANCH  14  17
ENDBRANCH   3  11
BRANCH   1  23
ATOM     23  C   UNL d   1     -30.970  20.969  25.893  0.00  0.00     0.177 C 
ATOM     24  O   UNL d   1     -31.717  21.670  26.547  0.00  0.00    -0.646 OA
BRANCH  23  25
ATOM     25  O   UNL d   1     -30.603  19.759  26.361  0.00  0.00    -0.773 OA
ATOM     26  H   UNL d   1     -30.100  19.742  27.187  0.00  0.00     0.167 HD
ENDBRANCH  23  25
ENDBRANCH   1  23
TORSDOF 4
ENDMDL
