MODEL 1
REMARK VINA RESULT:      -8.5      0.000      0.000
REMARK  3 active torsions:
REMARK  status: ('A' for Active; 'I' for Inactive)
REMARK    1  A    between atoms: C_6  and  N_7 
REMARK    2  A    between atoms: N_7  and  C_8 
REMARK    3  A    between atoms: C_11  and  C_12 
ROOT
ATOM      1  C   UNL d   1     -28.596  22.512  22.796  0.00  0.00     0.033 A 
ATOM      2  C   UNL d   1     -27.510  23.011  23.504  0.00  0.00     0.030 A 
ATOM      3  C   UNL d   1     -26.226  22.771  23.056  0.00  0.00     0.018 A 
ATOM      4  C   UNL d   1     -26.021  22.040  21.900  0.00  0.00     0.048 A 
ATOM      5  C   UNL d   1     -27.099  21.536  21.197  0.00  0.00     0.018 A 
ATOM      6  C   UNL d   1     -28.386  21.773  21.639  0.00  0.00     0.030 A 
ENDROOT
BRANCH   1   7
ATOM      7  N   UNL d   1     -29.896  22.753  23.247  0.00  0.00    -0.341 N 
ATOM      8  H   UNL d   1     -30.368  23.552  22.961  0.00  0.00     0.167 HD
BRANCH   7   9
ATOM      9  C   UNL d   1     -30.515  21.848  24.105  0.00  0.00     0.130 A 
ATOM     10  N   UNL d   1     -29.923  21.170  25.121  0.00  0.00    -0.262 N 
ATOM     11  N   UNL d   1     -30.899  20.370  25.730  0.00  0.00    -0.178 NA
ATOM     12  H   UNL d   1     -28.989  21.230  25.380  0.00  0.00     0.191 HD
ATOM     13  C   UNL d   1     -32.033  20.557  25.107  0.00  0.00     0.060 A 
ATOM     14  C   UNL d   1     -33.343  19.890  25.441  0.00  0.00     0.073 C 
ATOM     15  C   UNL d   1     -31.828  21.486  24.083  0.00  0.00     0.009 A 
ATOM     16  C   UNL d   1     -32.873  21.992  23.121  0.00  0.00     0.054 C 
ENDBRANCH   7   9
ENDBRANCH   1   7
BRANCH   4  17
ATOM     17  C   UNL d   1     -24.618  21.786  21.411  0.00  0.00     0.417 C 
ATOM     18  F   UNL d   1     -24.419  20.409  21.261  0.00  0.00    -0.166 F 
ATOM     19  F   UNL d   1     -24.432  22.421  20.178  0.00  0.00    -0.166 F 
ATOM     20  F   UNL d   1     -23.702  22.291  22.340  0.00  0.00    -0.166 F 
ENDBRANCH   4  17
TORSDOF 3
ENDMDL
