MODEL 1
REMARK VINA RESULT:     -11.3      0.000      0.000
REMARK  7 active torsions:
REMARK  status: ('A' for Active; 'I' for Inactive)
REMARK    1  A    between atoms: C_4  and  C_5 
REMARK    2  A    between atoms: C_11  and  N_12 
REMARK       I    between atoms: N_12  and  C_13 
REMARK    3  A    between atoms: C_13  and  C_15 
REMARK    4  A    between atoms: C_19  and  N_20 
REMARK    5  A    between atoms: C_31  and  O_32 
REMARK    6  A    between atoms: O_32  and  C_33 
REMARK    7  A    between atoms: C_33  and  C_35 
ROOT
ATOM      1  C   UNL d   1     -24.326  24.430  23.489  0.00  0.00     0.068 A 
ATOM      2  C   UNL d   1     -25.201  24.941  24.454  0.00  0.00     0.064 A 
ATOM      3  C   UNL d   1     -26.454  24.390  24.608  0.00  0.00     0.146 A 
ATOM      4  F   UNL d   1     -27.297  24.884  25.540  0.00  0.00    -0.204 F 
ATOM      5  C   UNL d   1     -26.853  23.323  23.803  0.00  0.00     0.104 A 
ATOM      6  C   UNL d   1     -25.989  22.807  22.847  0.00  0.00     0.073 A 
ATOM      7  C   UNL d   1     -24.730  23.357  22.681  0.00  0.00     0.087 A 
ENDROOT
BRANCH   1   8
ATOM      8  C   UNL d   1     -22.986  25.016  23.322  0.00  0.00     0.259 C 
ATOM      9  N   UNL d   1     -21.917  24.433  23.900  0.00  0.00    -0.322 N 
ATOM     10  H   UNL d   1     -22.040  23.675  24.493  0.00  0.00     0.169 HD
ATOM     11  O   UNL d   1     -22.842  26.028  22.662  0.00  0.00    -0.267 OA
BRANCH   9  12
ATOM     12  C   UNL d   1     -20.631  24.921  23.646  0.00  0.00     0.041 A 
ATOM     13  C   UNL d   1     -20.040  25.816  24.528  0.00  0.00    -0.034 A 
ATOM     14  C   UNL d   1     -20.783  26.264  25.760  0.00  0.00     0.050 C 
ATOM     15  C   UNL d   1     -18.768  26.291  24.277  0.00  0.00     0.025 A 
ATOM     16  C   UNL d   1     -18.087  25.885  23.144  0.00  0.00     0.048 A 
ATOM     17  C   UNL d   1     -18.676  24.998  22.261  0.00  0.00     0.018 A 
ATOM     18  C   UNL d   1     -19.945  24.515  22.509  0.00  0.00     0.031 A 
BRANCH  16  19
ATOM     19  C   UNL d   1     -16.701  26.410  22.870  0.00  0.00     0.417 C 
ATOM     20  F   UNL d   1     -16.789  27.698  22.332  0.00  0.00    -0.166 F 
ATOM     21  F   UNL d   1     -15.974  26.453  24.065  0.00  0.00    -0.166 F 
ATOM     22  F   UNL d   1     -16.054  25.567  21.961  0.00  0.00    -0.166 F 
ENDBRANCH  16  19
ENDBRANCH   9  12
ENDBRANCH   1   8
BRANCH   7  23
ATOM     23  O   UNL d   1     -23.887  22.856  21.743  0.00  0.00    -0.336 OA
BRANCH  23  24
ATOM     24  C   UNL d   1     -23.985  23.400  20.425  0.00  0.00     0.232 C 
ATOM     25  C   UNL d   1     -22.600  23.844  19.952  0.00  0.00     0.049 C 
BRANCH  24  26
ATOM     26  C   UNL d   1     -24.532  22.333  19.474  0.00  0.00     0.413 C 
ATOM     27  F   UNL d   1     -24.592  22.852  18.176  0.00  0.00    -0.168 F 
ATOM     28  F   UNL d   1     -23.688  21.217  19.490  0.00  0.00    -0.168 F 
ATOM     29  F   UNL d   1     -25.814  21.955  19.885  0.00  0.00    -0.168 F 
ENDBRANCH  24  26
ENDBRANCH  23  24
ENDBRANCH   7  23
BRANCH   5  30
ATOM     30  N   UNL d   1     -28.125  22.769  23.964  0.00  0.00    -0.178 N 
ATOM     31  C   UNL d   1     -28.531  21.979  24.982  0.00  0.00     0.351 A 
ATOM     32  N   UNL d   1     -29.825  21.689  24.773  0.00  0.00    -0.284 N 
ATOM     33  O   UNL d   1     -27.849  21.601  25.917  0.00  0.00    -0.244 OA
ATOM     34  C   UNL d   1     -30.215  22.274  23.586  0.00  0.00     0.131 A 
ATOM     35  C   UNL d   1     -30.716  20.907  25.638  0.00  0.00     0.135 C 
ATOM     36  N   UNL d   1     -29.216  22.926  23.095  0.00  0.00    -0.149 NA
ATOM     37  C   UNL d   1     -31.599  22.134  22.995  0.00  0.00     0.081 C 
ATOM     38  C   UNL d   1     -32.545  21.667  24.111  0.00  0.00     0.009 C 
ATOM     39  C   UNL d   1     -31.927  20.455  24.814  0.00  0.00     0.021 C 
ENDBRANCH   5  30
TORSDOF 7
ENDMDL
