MODEL 1
REMARK VINA RESULT:      -8.5      0.000      0.000
REMARK  6 active torsions:
REMARK  status: ('A' for Active; 'I' for Inactive)
REMARK    1  A    between atoms: C_2  and  N_3 
REMARK    2  A    between atoms: C_4  and  C_5 
REMARK    3  A    between atoms: C_5  and  O_6 
REMARK    4  A    between atoms: N_8  and  C_9 
REMARK    5  A    between atoms: N_15  and  C_16 
REMARK    6  A    between atoms: C_19  and  N_20 
ROOT
ATOM      1  C   UNL d   1     -28.263  22.334  22.990  0.00  0.00     0.064 A 
ATOM      2  C   UNL d   1     -27.502  21.590  22.086  0.00  0.00     0.033 A 
ATOM      3  C   UNL d   1     -26.173  21.847  21.913  0.00  0.00     0.020 A 
ATOM      4  C   UNL d   1     -25.564  22.870  22.641  0.00  0.00     0.044 A 
ATOM      5  C   UNL d   1     -24.141  23.183  22.495  0.00  0.00     0.263 A 
ATOM      6  O   UNL d   1     -23.449  22.553  21.715  0.00  0.00    -0.267 OA
ATOM      7  N   UNL d   1     -23.605  24.179  23.229  0.00  0.00    -0.285 N 
ATOM      8  C   UNL d   1     -24.344  24.912  24.115  0.00  0.00     0.119 A 
ATOM      9  C   UNL d   1     -25.654  24.689  24.316  0.00  0.00     0.033 A 
ATOM     10  I   UNL d   1     -26.725  25.850  25.692  0.00  0.00    -0.042 I 
ATOM     11  C   UNL d   1     -26.326  23.627  23.564  0.00  0.00    -0.000 A 
ATOM     12  C   UNL d   1     -27.681  23.350  23.730  0.00  0.00     0.045 A 
ENDROOT
BRANCH   1  13
ATOM     13  N   UNL d   1     -29.621  22.050  23.150  0.00  0.00    -0.181 N 
ATOM     14  N   UNL d   1     -30.232  21.534  24.301  0.00  0.00    -0.147 NA
ATOM     15  C   UNL d   1     -31.498  21.409  24.063  0.00  0.00     0.154 A 
ATOM     16  N   UNL d   1     -31.752  21.829  22.780  0.00  0.00    -0.283 N 
ATOM     17  C   UNL d   1     -30.590  22.228  22.227  0.00  0.00     0.351 A 
ATOM     18  O   UNL d   1     -30.440  22.665  21.100  0.00  0.00    -0.244 OA
BRANCH  15  19
ATOM     19  C   UNL d   1     -32.526  20.887  25.034  0.00  0.00     0.244 C 
BRANCH  19  20
ATOM     20  O   UNL d   1     -32.088  21.138  26.371  0.00  0.00    -0.393 OA
ATOM     21  H   UNL d   1     -32.142  22.067  26.635  0.00  0.00     0.209 HD
ENDBRANCH  19  20
ENDBRANCH  15  19
BRANCH  16  22
ATOM     22  C   UNL d   1     -33.063  21.845  22.127  0.00  0.00     0.131 C 
ATOM     23  C   UNL d   1     -33.390  20.443  21.606  0.00  0.00     0.027 C 
ENDBRANCH  16  22
ENDBRANCH   1  13
BRANCH   7  24
ATOM     24  C   UNL d   1     -22.244  24.474  23.078  0.00  0.00     0.080 A 
ATOM     25  C   UNL d   1     -21.796  25.135  21.940  0.00  0.00     0.145 A 
ATOM     26  C   UNL d   1     -20.452  25.429  21.798  0.00  0.00     0.080 A 
ATOM     27  F   UNL d   1     -22.672  25.494  20.977  0.00  0.00    -0.204 F 
ATOM     28  C   UNL d   1     -19.554  25.056  22.781  0.00  0.00     0.105 A 
ATOM     29  C   UNL d   1     -19.997  24.394  23.911  0.00  0.00     0.038 A 
ATOM     30  C   UNL d   1     -21.338  24.101  24.062  0.00  0.00     0.036 A 
BRANCH  28  31
ATOM     31  N   UNL d   1     -18.116  25.367  22.624  0.00  0.00    -0.116 N 
ATOM     32  O   UNL d   1     -17.398  24.623  21.981  0.00  0.00    -0.532 OA
ATOM     33  O   UNL d   1     -17.649  26.368  23.138  0.00  0.00    -0.532 OA
ENDBRANCH  28  31
ENDBRANCH   7  24
TORSDOF 6
ENDMDL
