MODEL 1
REMARK VINA RESULT:     -11.1      0.000      0.000
REMARK  6 active torsions:
REMARK  status: ('A' for Active; 'I' for Inactive)
REMARK    1  A    between atoms: C_2  and  O_3 
REMARK    2  A    between atoms: C_2  and  C_32 
REMARK    3  A    between atoms: O_3  and  C_4 
REMARK    4  A    between atoms: C_6  and  N_7 
REMARK    5  A    between atoms: C_20  and  C_21 
REMARK       I    between atoms: C_21  and  N_23 
REMARK    6  A    between atoms: N_23  and  C_24 
ROOT
ATOM      1  C   UNL d   1     -24.693  23.377  22.634  0.00  0.00     0.087 A 
ATOM      2  C   UNL d   1     -25.953  22.832  22.810  0.00  0.00     0.073 A 
ATOM      3  C   UNL d   1     -26.810  23.353  23.770  0.00  0.00     0.105 A 
ATOM      4  C   UNL d   1     -26.401  24.421  24.570  0.00  0.00     0.146 A 
ATOM      5  F   UNL d   1     -27.237  24.921  25.506  0.00  0.00    -0.204 F 
ATOM      6  C   UNL d   1     -25.148  24.967  24.407  0.00  0.00     0.064 A 
ATOM      7  C   UNL d   1     -24.281  24.451  23.437  0.00  0.00     0.068 A 
ENDROOT
BRANCH   7   8
ATOM      8  C   UNL d   1     -22.940  25.032  23.260  0.00  0.00     0.259 C 
ATOM      9  O   UNL d   1     -22.802  26.069  22.639  0.00  0.00    -0.267 OA
ATOM     10  N   UNL d   1     -21.863  24.415  23.787  0.00  0.00    -0.318 N 
ATOM     11  H   UNL d   1     -21.960  23.547  24.209  0.00  0.00     0.169 HD
BRANCH  10  12
ATOM     12  C   UNL d   1     -20.604  25.027  23.725  0.00  0.00     0.113 A 
ATOM     13  C   UNL d   1     -19.709  24.677  22.722  0.00  0.00     0.146 A 
ATOM     14  C   UNL d   1     -18.466  25.283  22.663  0.00  0.00     0.045 A 
ATOM     15  F   UNL d   1     -20.050  23.746  21.804  0.00  0.00    -0.204 F 
ATOM     16  C   UNL d   1     -18.116  26.236  23.602  0.00  0.00     0.006 A 
ATOM     17  C   UNL d   1     -19.004  26.587  24.601  0.00  0.00     0.045 A 
ATOM     18  C   UNL d   1     -20.251  25.990  24.663  0.00  0.00     0.146 A 
ATOM     19  F   UNL d   1     -21.120  26.338  25.636  0.00  0.00    -0.204 F 
ENDBRANCH  10  12
ENDBRANCH   7   8
BRANCH   1  20
ATOM     20  O   UNL d   1     -23.858  22.871  21.692  0.00  0.00    -0.336 OA
BRANCH  20  21
ATOM     21  C   UNL d   1     -23.971  23.405  20.371  0.00  0.00     0.232 C 
ATOM     22  C   UNL d   1     -22.592  23.850  19.882  0.00  0.00     0.049 C 
BRANCH  21  23
ATOM     23  C   UNL d   1     -24.524  22.331  19.432  0.00  0.00     0.413 C 
ATOM     24  F   UNL d   1     -23.682  21.213  19.455  0.00  0.00    -0.168 F 
ATOM     25  F   UNL d   1     -25.805  21.959  19.851  0.00  0.00    -0.168 F 
ATOM     26  F   UNL d   1     -24.588  22.838  18.130  0.00  0.00    -0.168 F 
ENDBRANCH  21  23
ENDBRANCH  20  21
ENDBRANCH   1  20
BRANCH   3  27
ATOM     27  N   UNL d   1     -28.081  22.805  23.940  0.00  0.00    -0.177 N 
ATOM     28  C   UNL d   1     -28.477  22.013  24.958  0.00  0.00     0.355 A 
ATOM     29  N   UNL d   1     -29.772  21.695  24.756  0.00  0.00    -0.256 N 
ATOM     30  O   UNL d   1     -27.787  21.649  25.893  0.00  0.00    -0.244 OA
ATOM     31  C   UNL d   1     -30.189  22.303  23.586  0.00  0.00     0.158 A 
ATOM     32  C   UNL d   1     -30.650  20.925  25.481  0.00  0.00     0.103 A 
ATOM     33  N   UNL d   1     -29.178  22.975  23.084  0.00  0.00    -0.144 NA
ATOM     34  C   UNL d   1     -31.524  22.126  23.144  0.00  0.00     0.053 A 
ATOM     35  C   UNL d   1     -32.372  21.366  23.879  0.00  0.00     0.005 A 
ATOM     36  C   UNL d   1     -31.918  20.755  25.065  0.00  0.00     0.018 A 
ENDBRANCH   3  27
TORSDOF 6
ENDMDL
