MODEL 1
REMARK VINA RESULT:     -10.6      0.000      0.000
REMARK  6 active torsions:
REMARK  status: ('A' for Active; 'I' for Inactive)
REMARK    1  A    between atoms: C_2  and  O_3 
REMARK    2  A    between atoms: C_2  and  C_33 
REMARK    3  A    between atoms: O_3  and  C_4 
REMARK    4  A    between atoms: C_6  and  N_7 
REMARK    5  A    between atoms: C_21  and  C_22 
REMARK       I    between atoms: C_22  and  N_24 
REMARK    6  A    between atoms: N_24  and  C_25 
ROOT
ATOM      1  C   UNL d   1     -24.330  23.584  22.701  0.00  0.00     0.087 A 
ATOM      2  C   UNL d   1     -25.573  22.978  22.775  0.00  0.00     0.073 A 
ATOM      3  C   UNL d   1     -26.519  23.442  23.678  0.00  0.00     0.104 A 
ATOM      4  C   UNL d   1     -26.223  24.519  24.514  0.00  0.00     0.146 A 
ATOM      5  F   UNL d   1     -27.152  24.969  25.386  0.00  0.00    -0.204 F 
ATOM      6  C   UNL d   1     -24.990  25.128  24.449  0.00  0.00     0.064 A 
ATOM      7  C   UNL d   1     -24.030  24.666  23.541  0.00  0.00     0.068 A 
ENDROOT
BRANCH   7   8
ATOM      8  C   UNL d   1     -22.710  25.315  23.468  0.00  0.00     0.259 C 
ATOM      9  O   UNL d   1     -22.585  26.376  22.887  0.00  0.00    -0.267 OA
ATOM     10  N   UNL d   1     -21.640  24.734  24.046  0.00  0.00    -0.320 N 
ATOM     11  H   UNL d   1     -21.722  23.852  24.442  0.00  0.00     0.169 HD
BRANCH  10  12
ATOM     12  C   UNL d   1     -20.411  25.403  24.076  0.00  0.00     0.079 A 
ATOM     13  C   UNL d   1     -20.156  26.348  25.061  0.00  0.00     0.062 A 
ATOM     14  C   UNL d   1     -18.940  27.006  25.087  0.00  0.00     0.026 A 
ATOM     15 CL   UNL d   1     -21.361  26.702  26.259  0.00  0.00    -0.082 Cl
ATOM     16  C   UNL d   1     -17.979  26.725  24.133  0.00  0.00     0.003 A 
ATOM     17  C   UNL d   1     -18.230  25.784  23.152  0.00  0.00     0.026 A 
ATOM     18  C   UNL d   1     -19.441  25.118  23.123  0.00  0.00     0.062 A 
ATOM     19 CL   UNL d   1     -19.751  23.931  21.894  0.00  0.00    -0.082 Cl
ENDBRANCH  10  12
ENDBRANCH   7   8
BRANCH   1  20
ATOM     20  O   UNL d   1     -23.403  23.131  21.818  0.00  0.00    -0.336 OA
BRANCH  20  21
ATOM     21  C   UNL d   1     -23.670  23.343  20.431  0.00  0.00     0.232 C 
ATOM     22  C   UNL d   1     -22.368  23.692  19.709  0.00  0.00     0.049 C 
BRANCH  21  23
ATOM     23  C   UNL d   1     -24.264  22.070  19.825  0.00  0.00     0.413 C 
ATOM     24  F   UNL d   1     -24.091  21.005  20.715  0.00  0.00    -0.168 F 
ATOM     25  F   UNL d   1     -25.630  22.261  19.586  0.00  0.00    -0.168 F 
ATOM     26  F   UNL d   1     -23.617  21.781  18.620  0.00  0.00    -0.168 F 
ENDBRANCH  21  23
ENDBRANCH  20  21
ENDBRANCH   1  20
BRANCH   3  27
ATOM     27  N   UNL d   1     -27.771  22.829  23.749  0.00  0.00    -0.178 N 
ATOM     28  C   UNL d   1     -28.234  22.070  24.769  0.00  0.00     0.351 A 
ATOM     29  N   UNL d   1     -29.472  21.682  24.447  0.00  0.00    -0.282 N 
ATOM     30  O   UNL d   1     -27.634  21.793  25.793  0.00  0.00    -0.244 OA
ATOM     31  C   UNL d   1     -29.781  22.200  23.196  0.00  0.00     0.155 A 
ATOM     32  C   UNL d   1     -30.419  20.854  25.208  0.00  0.00     0.137 C 
ATOM     33  N   UNL d   1     -28.781  22.883  22.774  0.00  0.00    -0.147 NA
ATOM     34  C   UNL d   1     -31.114  21.940  22.524  0.00  0.00     0.248 C 
ATOM     35  O   UNL d   1     -32.126  22.571  23.315  0.00  0.00    -0.384 OA
ATOM     36  C   UNL d   1     -32.595  21.845  24.431  0.00  0.00     0.169 C 
ATOM     37  C   UNL d   1     -31.616  21.739  25.578  0.00  0.00     0.046 C 
ENDBRANCH   3  27
TORSDOF 6
ENDMDL
