MODEL 1
REMARK VINA RESULT:      -9.3      0.000      0.000
REMARK  9 active torsions:
REMARK  status: ('A' for Active; 'I' for Inactive)
REMARK    1  A    between atoms: C_2  and  C_3 
REMARK    2  A    between atoms: C_3  and  C_4 
REMARK    3  A    between atoms: C_4  and  O_6 
REMARK    4  A    between atoms: O_6  and  C_7 
REMARK    5  A    between atoms: C_9  and  N_10 
REMARK    6  A    between atoms: C_12  and  C_13 
REMARK    7  A    between atoms: C_22  and  C_23 
REMARK       I    between atoms: C_23  and  N_25 
REMARK    8  A    between atoms: N_25  and  C_26 
REMARK    9  A    between atoms: C_26  and  C_27 
ROOT
ATOM      1  C   UNL d   1     -26.373  22.754  22.991  0.00  0.00     0.087 A 
ATOM      2  C   UNL d   1     -27.717  22.664  23.313  0.00  0.00     0.073 A 
ATOM      3  C   UNL d   1     -28.603  22.056  22.435  0.00  0.00     0.104 A 
ATOM      4  C   UNL d   1     -28.144  21.526  21.230  0.00  0.00     0.146 A 
ATOM      5  F   UNL d   1     -29.012  20.930  20.383  0.00  0.00    -0.204 F 
ATOM      6  C   UNL d   1     -26.812  21.614  20.897  0.00  0.00     0.064 A 
ATOM      7  C   UNL d   1     -25.912  22.227  21.776  0.00  0.00     0.068 A 
ENDROOT
BRANCH   7   8
ATOM      8  C   UNL d   1     -24.484  22.318  21.427  0.00  0.00     0.254 C 
ATOM      9  O   UNL d   1     -23.779  21.329  21.488  0.00  0.00    -0.268 OA
ATOM     10  N   UNL d   1     -23.958  23.497  21.041  0.00  0.00    -0.356 N 
ATOM     11  H   UNL d   1     -24.520  24.286  20.993  0.00  0.00     0.162 HD
BRANCH  10  12
ATOM     12  C   UNL d   1     -22.536  23.588  20.695  0.00  0.00     0.127 C 
BRANCH  12  13
ATOM     13  C   UNL d   1     -21.792  24.348  21.794  0.00  0.00     0.003 C 
ATOM     14  C   UNL d   1     -21.340  23.367  22.876  0.00  0.00     0.006 C 
ATOM     15  C   UNL d   1     -20.595  24.128  23.977  0.00  0.00     0.000 C 
ATOM     16  C   UNL d   1     -19.372  24.823  23.376  0.00  0.00     0.000 C 
ATOM     17  C   UNL d   1     -19.824  25.805  22.292  0.00  0.00     0.000 C 
ATOM     18  C   UNL d   1     -20.569  25.044  21.194  0.00  0.00     0.006 C 
ENDBRANCH  12  13
ENDBRANCH  10  12
ENDBRANCH   7   8
BRANCH   1  19
ATOM     19  O   UNL d   1     -25.506  23.349  23.847  0.00  0.00    -0.345 OA
BRANCH  19  20
ATOM     20  C   UNL d   1     -25.448  24.777  23.823  0.00  0.00     0.124 C 
ATOM     21  C   UNL d   1     -26.373  25.345  24.901  0.00  0.00     0.040 C 
BRANCH  20  22
ATOM     22  C   UNL d   1     -24.011  25.233  24.092  0.00  0.00     0.032 C 
BRANCH  22  23
ATOM     23  C   UNL d   1     -23.803  26.631  23.508  0.00  0.00    -0.002 C 
ATOM     24  C   UNL d   1     -22.574  27.276  24.155  0.00  0.00     0.005 C 
ENDBRANCH  22  23
ENDBRANCH  20  22
ENDBRANCH  19  20
ENDBRANCH   1  19
BRANCH   3  25
ATOM     25  N   UNL d   1     -29.957  21.968  22.765  0.00  0.00    -0.178 N 
ATOM     26  C   UNL d   1     -30.468  21.581  23.953  0.00  0.00     0.351 A 
ATOM     27  N   UNL d   1     -31.811  21.636  23.853  0.00  0.00    -0.289 N 
ATOM     28  O   UNL d   1     -29.831  21.243  24.935  0.00  0.00    -0.244 OA
ATOM     29  C   UNL d   1     -32.132  22.057  22.585  0.00  0.00     0.130 A 
ATOM     30  C   UNL d   1     -32.765  21.299  24.912  0.00  0.00     0.162 C 
ATOM     31  N   UNL d   1     -31.039  22.265  21.924  0.00  0.00    -0.149 NA
BRANCH  29  32
ATOM     32  C   UNL d   1     -33.530  22.248  22.052  0.00  0.00     0.076 C 
ATOM     33  C   UNL d   1     -34.042  20.925  21.480  0.00  0.00     0.013 C 
ENDBRANCH  29  32
ENDBRANCH   3  25
TORSDOF 9
ENDMDL
