MODEL 1
REMARK VINA RESULT:      -9.7      0.000      0.000
REMARK  5 active torsions:
REMARK  status: ('A' for Active; 'I' for Inactive)
REMARK    1  A    between atoms: C_2  and  OXT_3 
REMARK    2  A    between atoms: C_2  and  CA_4 
REMARK    3  A    between atoms: C_13  and  C_14 
REMARK    4  A    between atoms: C_14  and  C_15 
REMARK    5  A    between atoms: C_15  and  C_16 
ROOT
ATOM      1  CA  UNL d   1     -30.826  21.484  24.549  0.00  0.00     0.122 A 
ATOM      2  N   UNL d   1     -32.135  21.576  24.126  0.00  0.00    -0.302 N 
ATOM      3  H   UNL d   1     -32.850  21.323  24.730  0.00  0.00     0.171 HD
ATOM      4  C   UNL d   1     -32.437  22.004  22.889  0.00  0.00     0.327 A 
ATOM      5  O   UNL d   1     -33.604  22.066  22.553  0.00  0.00    -0.247 OA
ATOM      6  N   UNL d   1     -31.484  22.366  22.013  0.00  0.00    -0.275 N 
ATOM      7  H   UNL d   1     -31.735  22.672  21.127  0.00  0.00     0.173 HD
ATOM      8  C   UNL d   1     -30.181  22.309  22.358  0.00  0.00     0.258 A 
ATOM      9  O   UNL d   1     -29.316  22.636  21.567  0.00  0.00    -0.267 OA
ATOM     10  C   UNL d   1     -29.825  21.843  23.704  0.00  0.00     0.044 A 
ENDROOT
BRANCH  10  11
ATOM     11  C   UNL d   1     -28.383  21.761  24.136  0.00  0.00     0.051 C 
BRANCH  11  12
ATOM     12  C   UNL d   1     -27.911  23.138  24.603  0.00  0.00     0.045 C 
BRANCH  12  13
ATOM     13  C   UNL d   1     -26.600  23.473  23.938  0.00  0.00    -0.039 A 
ATOM     14  C   UNL d   1     -26.001  24.675  24.177  0.00  0.00     0.022 A 
ATOM     15  C   UNL d   1     -24.777  24.947  23.535  0.00  0.00    -0.007 A 
ATOM     16  C   UNL d   1     -24.222  23.969  22.674  0.00  0.00     0.066 A 
ATOM     17  C   UNL d   1     -24.101  26.162  23.732  0.00  0.00     0.014 A 
ATOM     18  N   UNL d   1     -24.861  22.811  22.482  0.00  0.00    -0.260 NA
ATOM     19  C   UNL d   1     -23.001  24.239  22.031  0.00  0.00     0.032 A 
ATOM     20  C   UNL d   1     -25.998  22.553  23.082  0.00  0.00     0.124 A 
ATOM     21  C   UNL d   1     -22.372  25.426  22.245  0.00  0.00     0.002 A 
ATOM     22  C   UNL d   1     -22.920  26.387  23.094  0.00  0.00     0.001 A 
ENDBRANCH  12  13
ENDBRANCH  11  12
ENDBRANCH  10  11
BRANCH   1  23
ATOM     23  C   UNL d   1     -30.515  21.002  25.916  0.00  0.00     0.194 C 
ATOM     24  O   UNL d   1     -30.347  21.799  26.816  0.00  0.00    -0.645 OA
BRANCH  23  25
ATOM     25  OXT UNL d   1     -30.420  19.681  26.159  0.00  0.00    -0.772 OA
ATOM     26  HXT UNL d   1     -30.209  19.415  27.065  0.00  0.00     0.167 HD
ENDBRANCH  23  25
ENDBRANCH   1  23
TORSDOF 5
ENDMDL
