MODEL 1
REMARK VINA RESULT:      -8.2      0.000      0.000
REMARK  3 active torsions:
REMARK  status: ('A' for Active; 'I' for Inactive)
REMARK    1  A    between atoms: C_2  and  C_4 
REMARK    2  A    between atoms: C_4  and  C_7 
REMARK       I    between atoms: C_7  and  N_9 
REMARK    3  A    between atoms: N_9  and  C_10 
ROOT
ATOM      1  C   UNL d   1     -31.630  21.799  24.659  0.00  0.00     0.253 C 
ATOM      2  C   UNL d   1     -32.557  21.139  23.725  0.00  0.00     0.081 C 
ATOM      3  N   UNL d   1     -33.272  20.630  23.004  0.00  0.00    -0.196 NA
ENDROOT
BRANCH   1   4
ATOM      4  C   UNL d   1     -31.342  20.877  25.816  0.00  0.00     0.149 C 
ATOM      5  C   UNL d   1     -31.904  19.479  25.822  0.00  0.00     0.093 C 
ATOM      6  O   UNL d   1     -30.662  21.259  26.737  0.00  0.00    -0.296 OA
ENDBRANCH   1   4
BRANCH   1   7
ATOM      7  C   UNL d   1     -30.345  22.126  23.945  0.00  0.00     0.247 C 
ATOM      8  O   UNL d   1     -30.349  22.899  23.010  0.00  0.00    -0.271 OA
ATOM      9  N   UNL d   1     -29.189  21.559  24.344  0.00  0.00    -0.326 N 
ATOM     10  H   UNL d   1     -29.193  20.892  25.048  0.00  0.00     0.169 HD
BRANCH   9  11
ATOM     11  C   UNL d   1     -27.984  21.933  23.745  0.00  0.00     0.034 A 
ATOM     12  C   UNL d   1     -27.185  22.905  24.339  0.00  0.00     0.031 A 
ATOM     13  C   UNL d   1     -25.995  23.271  23.753  0.00  0.00     0.025 A 
ATOM     14  C   UNL d   1     -25.593  22.673  22.556  0.00  0.00     0.044 A 
ATOM     15  C   UNL d   1     -26.398  21.697  21.962  0.00  0.00     0.025 A 
ATOM     16  C   UNL d   1     -24.358  23.054  21.941  0.00  0.00     0.099 C 
ATOM     17  C   UNL d   1     -27.585  21.331  22.556  0.00  0.00     0.031 A 
ATOM     18  N   UNL d   1     -23.377  23.358  21.454  0.00  0.00    -0.191 NA
ENDBRANCH   9  11
ENDBRANCH   1   7
TORSDOF 3
ENDMDL
