MODEL 1
REMARK VINA RESULT:     -12.4      0.000      0.000
REMARK  8 active torsions:
REMARK  status: ('A' for Active; 'I' for Inactive)
REMARK       I    between atoms: C_2  and  N_4 
REMARK    1  A    between atoms: N_4  and  C_5 
REMARK    2  A    between atoms: C_10  and  C_11 
REMARK    3  A    between atoms: C_11  and  O_12 
REMARK    4  A    between atoms: O_12  and  C_13 
REMARK    5  A    between atoms: C_16  and  C_17 
REMARK    6  A    between atoms: C_20  and  C_21 
REMARK    7  A    between atoms: C_24  and  C_25 
REMARK    8  A    between atoms: C_25  and  O_27 
ROOT
ATOM      1  C   UNL d   1     -25.344  22.989  23.076  0.00  0.00    -0.026 A 
ATOM      2  C   UNL d   1     -26.075  23.538  24.131  0.00  0.00     0.013 A 
ATOM      3  C   UNL d   1     -27.391  23.182  24.316  0.00  0.00     0.016 A 
ATOM      4  C   UNL d   1     -27.996  22.270  23.449  0.00  0.00     0.010 A 
ATOM      5  C   UNL d   1     -27.263  21.717  22.396  0.00  0.00     0.016 A 
ATOM      6  C   UNL d   1     -25.948  22.078  22.209  0.00  0.00     0.013 A 
ENDROOT
BRANCH   1   7
ATOM      7  C   UNL d   1     -23.927  23.373  22.878  0.00  0.00    -0.026 A 
ATOM      8  C   UNL d   1     -23.569  24.205  21.817  0.00  0.00     0.015 A 
ATOM      9  C   UNL d   1     -22.250  24.560  21.634  0.00  0.00     0.037 A 
ATOM     10  C   UNL d   1     -21.276  24.090  22.506  0.00  0.00     0.069 A 
ATOM     11  C   UNL d   1     -21.629  23.262  23.564  0.00  0.00     0.037 A 
ATOM     12  C   UNL d   1     -22.947  22.907  23.755  0.00  0.00     0.015 A 
BRANCH  10  13
ATOM     13  O   UNL d   1     -19.977  24.443  22.325  0.00  0.00    -0.347 OA
BRANCH  13  14
ATOM     14  C   UNL d   1     -19.633  25.806  22.581  0.00  0.00     0.216 C 
BRANCH  14  15
ATOM     15  C   UNL d   1     -19.993  26.158  24.001  0.00  0.00    -0.007 A 
ATOM     16  C   UNL d   1     -19.113  25.865  25.035  0.00  0.00     0.043 A 
ATOM     17  C   UNL d   1     -19.448  26.196  26.342  0.00  0.00     0.030 A 
ATOM     18  C   UNL d   1     -20.659  26.803  26.610  0.00  0.00     0.002 A 
ATOM     19  C   UNL d   1     -21.535  27.088  25.579  0.00  0.00     0.001 A 
ATOM     20  C   UNL d   1     -21.203  26.767  24.276  0.00  0.00     0.011 A 
BRANCH  16  21
ATOM     21  N   UNL d   1     -17.890  25.243  24.760  0.00  0.00    -0.327 N 
ATOM     22  C   UNL d   1     -16.773  25.984  24.631  0.00  0.00     0.218 C 
ATOM     23  C   UNL d   1     -15.475  25.327  24.235  0.00  0.00     0.117 C 
ATOM     24  O   UNL d   1     -16.811  27.179  24.832  0.00  0.00    -0.274 OA
ATOM     25  H   UNL d   1     -17.848  24.279  24.662  0.00  0.00     0.169 HD
ENDBRANCH  16  21
ENDBRANCH  14  15
ENDBRANCH  13  14
ENDBRANCH  10  13
ENDBRANCH   1   7
BRANCH   4  26
ATOM     26  C   UNL d   1     -29.409  21.886  23.647  0.00  0.00     0.139 A 
ATOM     27  N   UNL d   1     -29.912  21.282  24.764  0.00  0.00    -0.338 N 
ATOM     28  C   UNL d   1     -31.264  21.095  24.551  0.00  0.00     0.064 A 
ATOM     29  H   UNL d   1     -29.414  21.031  25.559  0.00  0.00     0.167 HD
ATOM     30  C   UNL d   1     -31.533  21.612  23.271  0.00  0.00     0.102 A 
ATOM     31  C   UNL d   1     -32.290  20.545  25.305  0.00  0.00     0.038 A 
ATOM     32  N   UNL d   1     -30.373  22.075  22.775  0.00  0.00    -0.227 NA
ATOM     33  C   UNL d   1     -32.852  21.561  22.767  0.00  0.00     0.069 A 
ATOM     34  C   UNL d   1     -33.860  20.997  23.544  0.00  0.00     0.027 A 
ATOM     35  C   UNL d   1     -33.577  20.500  24.803  0.00  0.00    -0.059 A 
ATOM     36  C   UNL d   1     -34.681  19.898  25.633  0.00  0.00     0.048 C 
BRANCH  33  37
ATOM     37  C   UNL d   1     -33.157  22.094  21.429  0.00  0.00     0.178 C 
ATOM     38  O   UNL d   1     -34.264  22.539  21.191  0.00  0.00    -0.646 OA
BRANCH  37  39
ATOM     39  O   UNL d   1     -32.211  22.092  20.470  0.00  0.00    -0.773 OA
ATOM     40  H   UNL d   1     -32.022  21.246  20.041  0.00  0.00     0.167 HD
ENDBRANCH  37  39
ENDBRANCH  33  37
ENDBRANCH   4  26
TORSDOF 8
ENDMDL
