MODEL 1
REMARK VINA RESULT:      -9.7      0.000      0.000
REMARK  3 active torsions:
REMARK  status: ('A' for Active; 'I' for Inactive)
REMARK       I    between atoms: C_2  and  N_3 
REMARK    1  A    between atoms: C_2  and  C_7 
REMARK    2  A    between atoms: N_3  and  C_4 
REMARK    3  A    between atoms: C_10  and  N_11 
ROOT
ATOM      1  C   UNL d   1     -26.687  22.897  24.132  0.00  0.00     0.074 A 
ATOM      2  C   UNL d   1     -26.819  22.865  25.494  0.00  0.00     0.027 A 
ATOM      3  C   UNL d   1     -28.019  22.351  25.911  0.00  0.00     0.039 A 
ATOM      4  C   UNL d   1     -28.852  21.972  24.922  0.00  0.00     0.083 A 
ATOM      5  S   UNL d   1     -28.146  22.250  23.395  0.00  0.00    -0.067 SA
ENDROOT
BRANCH   4   6
ATOM      6  N   UNL d   1     -30.119  21.430  25.119  0.00  0.00    -0.297 N 
ATOM      7  C   UNL d   1     -31.195  21.522  24.255  0.00  0.00     0.073 A 
ATOM      8  C   UNL d   1     -32.248  20.829  24.872  0.00  0.00     0.123 A 
ATOM      9  C   UNL d   1     -31.388  22.118  23.016  0.00  0.00     0.032 A 
ATOM     10  N   UNL d   1     -31.776  20.360  26.056  0.00  0.00    -0.238 NA
ATOM     11  C   UNL d   1     -33.488  20.748  24.228  0.00  0.00     0.147 A 
ATOM     12  C   UNL d   1     -30.530  20.705  26.199  0.00  0.00     0.216 A 
ATOM     13  F   UNL d   1     -34.511  20.084  24.809  0.00  0.00    -0.204 F 
ATOM     14  C   UNL d   1     -33.661  21.346  22.999  0.00  0.00     0.045 A 
ATOM     15  C   UNL d   1     -32.615  22.028  22.394  0.00  0.00     0.005 A 
ENDBRANCH   4   6
BRANCH   1  16
ATOM     16  C   UNL d   1     -25.518  23.392  23.406  0.00  0.00     0.258 C 
ATOM     17  O   UNL d   1     -24.985  22.693  22.562  0.00  0.00    -0.267 OA
ATOM     18  N   UNL d   1     -25.031  24.620  23.671  0.00  0.00    -0.352 N 
ATOM     19  H   UNL d   1     -25.455  25.176  24.342  0.00  0.00     0.163 HD
BRANCH  18  20
ATOM     20  C   UNL d   1     -23.860  25.116  22.943  0.00  0.00     0.084 A 
ATOM     21  C   UNL d   1     -23.495  26.593  23.113  0.00  0.00     0.027 A 
ATOM     22  C   UNL d   1     -22.632  25.509  23.765  0.00  0.00     0.027 A 
ENDBRANCH  18  20
ENDBRANCH   1  16
TORSDOF 3
ENDMDL
