MODEL 1
REMARK VINA RESULT:     -11.7      0.000      0.000
REMARK  7 active torsions:
REMARK  status: ('A' for Active; 'I' for Inactive)
REMARK       I    between atoms: N_1  and  C_2 
REMARK    1  A    between atoms: C_2  and  C_4 
REMARK    2  A    between atoms: C_11  and  C_12 
REMARK    3  A    between atoms: C_15  and  C_16 
REMARK    4  A    between atoms: C_19  and  O_20 
REMARK    5  A    between atoms: O_20  and  C_21 
REMARK    6  A    between atoms: C_21  and  C_22 
REMARK    7  A    between atoms: C_22  and  N_23 
ROOT
ATOM      1  C   UNL d   1     -27.911  22.282  23.477  0.00  0.00     0.010 A 
ATOM      2  C   UNL d   1     -27.278  23.184  24.336  0.00  0.00     0.016 A 
ATOM      3  C   UNL d   1     -25.968  23.544  24.110  0.00  0.00     0.013 A 
ATOM      4  C   UNL d   1     -25.276  23.013  23.021  0.00  0.00    -0.026 A 
ATOM      5  C   UNL d   1     -25.906  22.108  22.167  0.00  0.00     0.013 A 
ATOM      6  C   UNL d   1     -27.215  21.747  22.391  0.00  0.00     0.016 A 
ENDROOT
BRANCH   1   7
ATOM      7  C   UNL d   1     -29.316  21.895  23.719  0.00  0.00     0.139 A 
ATOM      8  N   UNL d   1     -29.782  21.291  24.853  0.00  0.00    -0.338 N 
ATOM      9  C   UNL d   1     -31.140  21.100  24.682  0.00  0.00     0.064 A 
ATOM     10  H   UNL d   1     -29.259  21.044  25.632  0.00  0.00     0.167 HD
ATOM     11  C   UNL d   1     -32.139  20.546  25.469  0.00  0.00     0.032 A 
ATOM     12  C   UNL d   1     -31.449  21.612  23.409  0.00  0.00     0.101 A 
ATOM     13  C   UNL d   1     -33.441  20.496  25.006  0.00  0.00     0.003 A 
ATOM     14  C   UNL d   1     -33.765  20.993  23.759  0.00  0.00     0.020 A 
ATOM     15  C   UNL d   1     -32.782  21.555  22.946  0.00  0.00     0.062 A 
ATOM     16  N   UNL d   1     -30.307  22.083  22.879  0.00  0.00    -0.227 NA
BRANCH  15  17
ATOM     17  C   UNL d   1     -33.131  22.085  21.617  0.00  0.00     0.251 C 
ATOM     18  N   UNL d   1     -32.245  22.002  20.604  0.00  0.00    -0.366 N 
ATOM     19  H   UNL d   1     -31.378  21.594  20.752  0.00  0.00     0.159 HD
ATOM     20  H   UNL d   1     -32.475  22.350  19.729  0.00  0.00     0.159 HD
ATOM     21  O   UNL d   1     -34.219  22.597  21.432  0.00  0.00    -0.268 OA
ENDBRANCH  15  17
ENDBRANCH   1   7
BRANCH   4  22
ATOM     22  C   UNL d   1     -23.867  23.406  22.776  0.00  0.00    -0.026 A 
ATOM     23  C   UNL d   1     -23.569  24.373  21.816  0.00  0.00     0.015 A 
ATOM     24  C   UNL d   1     -22.258  24.737  21.591  0.00  0.00     0.037 A 
ATOM     25  C   UNL d   1     -21.236  24.141  22.317  0.00  0.00     0.068 A 
ATOM     26  C   UNL d   1     -21.530  23.178  23.275  0.00  0.00     0.037 A 
ATOM     27  C   UNL d   1     -22.839  22.814  23.508  0.00  0.00     0.015 A 
BRANCH  25  28
ATOM     28  O   UNL d   1     -19.945  24.502  22.093  0.00  0.00    -0.349 OA
BRANCH  28  29
ATOM     29  C   UNL d   1     -19.492  25.706  22.713  0.00  0.00     0.206 C 
BRANCH  29  30
ATOM     30  C   UNL d   1     -18.981  25.394  24.121  0.00  0.00     0.299 C 
BRANCH  30  31
ATOM     31  N   UNL d   1     -19.955  25.869  25.112  0.00  0.00     0.090 N 
ATOM     32  C   UNL d   1     -20.858  26.868  24.525  0.00  0.00     0.272 C 
ATOM     33  C   UNL d   1     -21.946  27.232  25.539  0.00  0.00     0.030 C 
ATOM     34  C   UNL d   1     -21.292  27.790  26.805  0.00  0.00     0.003 C 
ATOM     35  C   UNL d   1     -20.320  26.749  27.369  0.00  0.00     0.030 C 
ATOM     36  C   UNL d   1     -19.279  26.400  26.303  0.00  0.00     0.272 C 
ENDBRANCH  30  31
ENDBRANCH  29  30
ENDBRANCH  28  29
ENDBRANCH  25  28
ENDBRANCH   4  22
TORSDOF 7
ENDMDL
