MODEL 1
REMARK VINA RESULT:      -8.3      0.000      0.000
REMARK  11 active torsions:
REMARK  status: ('A' for Active; 'I' for Inactive)
REMARK    1  A    between atoms: C_2  and  C_3 
REMARK    2  A    between atoms: N_5  and  C_6 
REMARK    3  A    between atoms: C_8  and  O_9 
REMARK    4  A    between atoms: O_9  and  C_10 
REMARK    5  A    between atoms: C_10  and  C_12 
REMARK    6  A    between atoms: C_12  and  C_13 
REMARK    7  A    between atoms: C_12  and  C_15 
REMARK    8  A    between atoms: C_17  and  C_18 
REMARK       I    between atoms: C_18  and  N_20 
REMARK    9  A    between atoms: N_20  and  C_21 
REMARK   10  A    between atoms: C_21  and  C_22 
REMARK   11  A    between atoms: C_21  and  C_24 
ROOT
ATOM      1  C   UNL d   1     -27.149  22.941  24.005  0.00  0.00     0.104 A 
ATOM      2  C   UNL d   1     -28.102  22.405  23.148  0.00  0.00     0.073 A 
ATOM      3  C   UNL d   1     -29.266  21.860  23.661  0.00  0.00     0.087 A 
ATOM      4  C   UNL d   1     -29.482  21.855  25.047  0.00  0.00     0.068 A 
ATOM      5  C   UNL d   1     -28.515  22.393  25.903  0.00  0.00     0.064 A 
ATOM      6  C   UNL d   1     -27.360  22.933  25.383  0.00  0.00     0.146 A 
ATOM      7  F   UNL d   1     -26.429  23.456  26.210  0.00  0.00    -0.204 F 
ENDROOT
BRANCH   1   8
ATOM      8  N   UNL d   1     -25.976  23.490  23.484  0.00  0.00    -0.178 N 
ATOM      9  N   UNL d   1     -25.494  24.788  23.708  0.00  0.00    -0.149 NA
ATOM     10  C   UNL d   1     -24.383  24.923  23.058  0.00  0.00     0.130 A 
ATOM     11  N   UNL d   1     -24.107  23.748  22.404  0.00  0.00    -0.289 N 
ATOM     12  C   UNL d   1     -25.091  22.869  22.676  0.00  0.00     0.351 A 
ATOM     13  C   UNL d   1     -22.938  23.491  21.559  0.00  0.00     0.162 C 
ATOM     14  O   UNL d   1     -25.170  21.725  22.267  0.00  0.00    -0.244 OA
BRANCH  10  15
ATOM     15  C   UNL d   1     -23.533  26.167  23.024  0.00  0.00     0.076 C 
ATOM     16  C   UNL d   1     -22.578  26.165  24.220  0.00  0.00     0.013 C 
ENDBRANCH  10  15
ENDBRANCH   1   8
BRANCH   3  17
ATOM     17  O   UNL d   1     -30.198  21.335  22.826  0.00  0.00    -0.345 OA
BRANCH  17  18
ATOM     18  C   UNL d   1     -31.131  22.247  22.242  0.00  0.00     0.129 C 
ATOM     19  C   UNL d   1     -30.818  22.414  20.754  0.00  0.00     0.040 C 
BRANCH  18  20
ATOM     20  C   UNL d   1     -32.550  21.698  22.407  0.00  0.00     0.014 C 
BRANCH  20  21
ATOM     21  C   UNL d   1     -33.442  22.769  23.038  0.00  0.00     0.002 C 
ATOM     22  C   UNL d   1     -34.577  23.119  22.075  0.00  0.00     0.005 C 
ENDBRANCH  20  21
BRANCH  20  23
ATOM     23  C   UNL d   1     -33.109  21.311  21.036  0.00  0.00     0.002 C 
ATOM     24  C   UNL d   1     -33.809  19.953  21.135  0.00  0.00     0.005 C 
ENDBRANCH  20  23
ENDBRANCH  18  20
ENDBRANCH  17  18
ENDBRANCH   3  17
BRANCH   4  25
ATOM     25  C   UNL d   1     -30.722  21.282  25.600  0.00  0.00     0.254 C 
ATOM     26  O   UNL d   1     -31.425  21.949  26.336  0.00  0.00    -0.268 OA
ATOM     27  N   UNL d   1     -31.077  20.019  25.290  0.00  0.00    -0.352 N 
ATOM     28  H   UNL d   1     -30.516  19.487  24.703  0.00  0.00     0.163 HD
BRANCH  27  29
ATOM     29  C   UNL d   1     -32.310  19.449  25.840  0.00  0.00     0.084 C 
BRANCH  29  30
ATOM     30  C   UNL d   1     -33.392  19.435  24.758  0.00  0.00     0.021 C 
ATOM     31  C   UNL d   1     -34.645  20.141  25.280  0.00  0.00     0.007 C 
ENDBRANCH  29  30
BRANCH  29  32
ATOM     32  C   UNL d   1     -32.044  18.019  26.314  0.00  0.00     0.021 C 
ATOM     33  C   UNL d   1     -30.563  17.867  26.670  0.00  0.00     0.007 C 
ENDBRANCH  29  32
ENDBRANCH  27  29
ENDBRANCH   4  25
TORSDOF 11
ENDMDL
