MODEL 1
REMARK VINA RESULT:     -10.6      0.000      0.000
REMARK  4 active torsions:
REMARK  status: ('A' for Active; 'I' for Inactive)
REMARK    1  A    between atoms: C_2  and  O_3 
REMARK    2  A    between atoms: C_4  and  C_7 
REMARK       I    between atoms: C_7  and  N_9 
REMARK    3  A    between atoms: N_9  and  C_10 
REMARK    4  A    between atoms: C_13  and  C_14 
ROOT
ATOM      1  C   UNL d   1     -33.140  21.257  23.839  0.00  0.00     0.077 C 
ATOM      2  C   UNL d   1     -31.848  21.697  23.199  0.00  0.00     0.065 C 
ATOM      3  C   UNL d   1     -30.715  21.797  23.951  0.00  0.00     0.141 C 
ATOM      4  C   UNL d   1     -30.752  21.484  25.348  0.00  0.00     0.107 C 
ATOM      5  N   UNL d   1     -30.781  21.235  26.456  0.00  0.00    -0.191 NA
ENDROOT
BRANCH   3   6
ATOM      6  C   UNL d   1     -29.456  22.228  23.327  0.00  0.00     0.269 C 
ATOM      7  O   UNL d   1     -29.460  23.119  22.500  0.00  0.00    -0.266 OA
ATOM      8  N   UNL d   1     -28.296  21.634  23.672  0.00  0.00    -0.321 N 
ATOM      9  H   UNL d   1     -28.301  20.870  24.270  0.00  0.00     0.169 HD
BRANCH   8  10
ATOM     10  C   UNL d   1     -27.085  22.118  23.166  0.00  0.00     0.057 A 
ATOM     11  C   UNL d   1     -26.430  23.161  23.812  0.00  0.00     0.061 A 
ATOM     12  C   UNL d   1     -25.233  23.636  23.318  0.00  0.00     0.038 A 
ATOM     13 CL   UNL d   1     -27.117  23.860  25.246  0.00  0.00    -0.082 Cl
ATOM     14  C   UNL d   1     -24.683  23.074  22.168  0.00  0.00    -0.022 A 
ATOM     15  C   UNL d   1     -25.345  22.032  21.519  0.00  0.00     0.014 A 
ATOM     16  C   UNL d   1     -26.541  21.560  22.016  0.00  0.00     0.032 A 
BRANCH  14  17
ATOM     17  C   UNL d   1     -23.396  23.582  21.635  0.00  0.00    -0.002 A 
ATOM     18  C   UNL d   1     -22.289  23.700  22.473  0.00  0.00     0.066 A 
ATOM     19  C   UNL d   1     -21.090  24.170  21.969  0.00  0.00     0.056 A 
ATOM     20 CL   UNL d   1     -22.413  23.252  24.146  0.00  0.00    -0.082 Cl
ATOM     21  C   UNL d   1     -20.993  24.533  20.637  0.00  0.00     0.026 A 
ATOM     22 CL   UNL d   1     -19.708  24.312  23.010  0.00  0.00    -0.083 Cl
ATOM     23  C   UNL d   1     -22.091  24.422  19.802  0.00  0.00     0.003 A 
ATOM     24  C   UNL d   1     -23.289  23.949  20.294  0.00  0.00     0.014 A 
ENDBRANCH  14  17
ENDBRANCH   8  10
ENDBRANCH   3   6
BRANCH   2  25
ATOM     25  O   UNL d   1     -31.814  21.991  21.888  0.00  0.00    -0.364 OA
ATOM     26  H   UNL d   1     -32.433  22.664  21.572  0.00  0.00     0.217 HD
ENDBRANCH   2  25
TORSDOF 4
ENDMDL
