MODEL 1
REMARK VINA RESULT:     -11.5      0.000      0.000
REMARK  4 active torsions:
REMARK  status: ('A' for Active; 'I' for Inactive)
REMARK    1  A    between atoms: C_3  and  C_4 
REMARK    2  A    between atoms: C_7  and  C_8 
REMARK    3  A    between atoms: C_25  and  C_26 
REMARK    4  A    between atoms: C_26  and  O_28 
ROOT
ATOM      1  C   UNL d   1     -29.712  23.058  21.280  0.00  0.00     0.052 C 
ATOM      2  C   UNL d   1     -30.098  22.294  22.520  0.00  0.00    -0.015 A 
ATOM      3  C   UNL d   1     -29.121  21.926  23.457  0.00  0.00     0.074 A 
ATOM      4  N   UNL d   1     -29.414  21.263  24.556  0.00  0.00    -0.247 NA
ATOM      5  C   UNL d   1     -30.659  20.889  24.853  0.00  0.00     0.069 A 
ATOM      6  C   UNL d   1     -30.942  20.180  26.037  0.00  0.00     0.035 A 
ATOM      7  C   UNL d   1     -32.221  19.813  26.314  0.00  0.00     0.044 A 
ATOM      8  C   UNL d   1     -33.265  20.126  25.442  0.00  0.00     0.117 A 
ATOM      9  F   UNL d   1     -34.526  19.747  25.747  0.00  0.00    -0.206 F 
ATOM     10  C   UNL d   1     -33.028  20.812  24.285  0.00  0.00     0.057 A 
ATOM     11  C   UNL d   1     -31.723  21.204  23.971  0.00  0.00     0.013 A 
ATOM     12  C   UNL d   1     -31.422  21.941  22.742  0.00  0.00     0.058 A 
ENDROOT
BRANCH   3  13
ATOM     13  C   UNL d   1     -27.709  22.303  23.205  0.00  0.00    -0.007 A 
ATOM     14  C   UNL d   1     -27.138  23.371  23.898  0.00  0.00     0.014 A 
ATOM     15  C   UNL d   1     -25.826  23.719  23.666  0.00  0.00     0.013 A 
ATOM     16  C   UNL d   1     -25.072  23.010  22.731  0.00  0.00    -0.021 A 
ATOM     17  C   UNL d   1     -25.643  21.943  22.037  0.00  0.00     0.013 A 
ATOM     18  C   UNL d   1     -26.953  21.592  22.272  0.00  0.00     0.014 A 
BRANCH  16  19
ATOM     19  C   UNL d   1     -23.660  23.388  22.478  0.00  0.00     0.032 A 
ATOM     20  C   UNL d   1     -23.242  23.758  21.198  0.00  0.00     0.220 A 
ATOM     21  N   UNL d   1     -21.987  24.095  20.974  0.00  0.00    -0.232 NA
ATOM     22  F   UNL d   1     -24.132  23.773  20.180  0.00  0.00    -0.183 F 
ATOM     23  C   UNL d   1     -21.085  24.096  21.937  0.00  0.00     0.120 A 
ATOM     24  C   UNL d   1     -21.421  23.741  23.230  0.00  0.00     0.020 A 
ATOM     25  C   UNL d   1     -22.726  23.379  23.517  0.00  0.00     0.018 A 
ENDBRANCH  16  19
ENDBRANCH   3  13
BRANCH  12  26
ATOM     26  C   UNL d   1     -32.485  22.301  21.782  0.00  0.00     0.177 C 
ATOM     27  O   UNL d   1     -32.419  21.920  20.631  0.00  0.00    -0.646 OA
BRANCH  26  28
ATOM     28  O   UNL d   1     -33.530  23.051  22.184  0.00  0.00    -0.773 OA
ATOM     29  H   UNL d   1     -34.393  22.617  22.222  0.00  0.00     0.167 HD
ENDBRANCH  26  28
ENDBRANCH  12  26
TORSDOF 4
ENDMDL
