MODEL 1
REMARK VINA RESULT:     -12.2      0.000      0.000
REMARK  4 active torsions:
REMARK  status: ('A' for Active; 'I' for Inactive)
REMARK    1  A    between atoms: C_4  and  C_5 
REMARK    2  A    between atoms: C_5  and  O_7 
REMARK    3  A    between atoms: C_11  and  C_12 
REMARK    4  A    between atoms: C_15  and  C_16 
ROOT
ATOM      1  C   UNL d   1     -34.183  21.638  22.206  0.00  0.00     0.048 C 
ATOM      2  C   UNL d   1     -32.806  21.694  22.817  0.00  0.00    -0.059 A 
ATOM      3  C   UNL d   1     -32.617  21.268  24.118  0.00  0.00     0.027 A 
ATOM      4  C   UNL d   1     -31.348  21.315  24.697  0.00  0.00     0.067 A 
ATOM      5  C   UNL d   1     -30.266  21.798  23.950  0.00  0.00     0.080 A 
ATOM      6  N   UNL d   1     -28.926  21.965  24.211  0.00  0.00    -0.337 N 
ATOM      7  H   UNL d   1     -28.471  21.755  25.040  0.00  0.00     0.167 HD
ATOM      8  C   UNL d   1     -28.353  22.490  23.082  0.00  0.00     0.142 A 
ATOM      9  N   UNL d   1     -29.266  22.640  22.151  0.00  0.00    -0.228 NA
ATOM     10  C   UNL d   1     -30.467  22.230  22.627  0.00  0.00     0.087 A 
ATOM     11  C   UNL d   1     -31.749  22.173  22.071  0.00  0.00     0.040 A 
ENDROOT
BRANCH   8  12
ATOM     12  C   UNL d   1     -26.923  22.828  22.931  0.00  0.00     0.049 A 
ATOM     13  C   UNL d   1     -26.125  22.111  22.034  0.00  0.00     0.131 A 
ATOM     14  C   UNL d   1     -24.789  22.429  21.895  0.00  0.00     0.055 A 
ATOM     15  F   UNL d   1     -26.659  21.105  21.307  0.00  0.00    -0.205 F 
ATOM     16  C   UNL d   1     -24.237  23.464  22.649  0.00  0.00    -0.020 A 
ATOM     17  C   UNL d   1     -25.034  24.178  23.545  0.00  0.00     0.013 A 
ATOM     18  C   UNL d   1     -26.367  23.864  23.685  0.00  0.00     0.019 A 
BRANCH  16  19
ATOM     19  C   UNL d   1     -22.802  23.805  22.500  0.00  0.00     0.013 A 
ATOM     20  C   UNL d   1     -22.344  24.416  21.331  0.00  0.00     0.127 A 
ATOM     21  C   UNL d   1     -21.005  24.736  21.202  0.00  0.00     0.043 A 
ATOM     22  F   UNL d   1     -23.209  24.699  20.332  0.00  0.00    -0.205 F 
ATOM     23  C   UNL d   1     -20.120  24.441  22.222  0.00  0.00     0.003 A 
ATOM     24  C   UNL d   1     -20.568  23.829  23.380  0.00  0.00     0.001 A 
ATOM     25  C   UNL d   1     -21.903  23.510  23.524  0.00  0.00     0.015 A 
ENDBRANCH  16  19
ENDBRANCH   8  12
BRANCH   4  26
ATOM     26  C   UNL d   1     -31.148  20.860  26.084  0.00  0.00     0.178 C 
ATOM     27  O   UNL d   1     -30.488  21.529  26.854  0.00  0.00    -0.646 OA
BRANCH  26  28
ATOM     28  O   UNL d   1     -31.699  19.703  26.499  0.00  0.00    -0.773 OA
ATOM     29  H   UNL d   1     -31.092  19.008  26.792  0.00  0.00     0.167 HD
ENDBRANCH  26  28
ENDBRANCH   4  26
TORSDOF 4
ENDMDL
