MODEL 1
REMARK VINA RESULT:     -11.1      0.000      0.000
REMARK  3 active torsions:
REMARK  status: ('A' for Active; 'I' for Inactive)
REMARK       I    between atoms: C_2  and  N_3 
REMARK    1  A    between atoms: C_2  and  C_20 
REMARK    2  A    between atoms: N_3  and  C_4 
REMARK    3  A    between atoms: N_12  and  C_13 
ROOT
ATOM      1  C   UNL d   1     -27.133  22.312  22.115  0.00  0.00     0.121 C 
ATOM      2  C   UNL d   1     -26.466  21.204  21.291  0.00  0.00     0.030 C 
ATOM      3  C   UNL d   1     -25.402  21.817  20.377  0.00  0.00     0.008 C 
ATOM      4  C   UNL d   1     -24.217  22.302  21.222  0.00  0.00     0.060 C 
ATOM      5  C   UNL d   1     -24.753  23.143  22.353  0.00  0.00     0.046 A 
ATOM      6  C   UNL d   1     -26.052  23.150  22.749  0.00  0.00     0.008 A 
ATOM      7  C   UNL d   1     -26.173  24.045  23.810  0.00  0.00     0.150 A 
ATOM      8  N   UNL d   1     -24.992  24.560  24.048  0.00  0.00    -0.179 NA
ATOM      9  N   UNL d   1     -24.078  24.003  23.139  0.00  0.00    -0.235 N 
ENDROOT
BRANCH   1  10
ATOM     10  N   UNL d   1     -27.971  21.713  23.159  0.00  0.00    -0.346 N 
ATOM     11  C   UNL d   1     -29.215  22.183  23.375  0.00  0.00     0.288 C 
ATOM     12  O   UNL d   1     -29.644  23.104  22.704  0.00  0.00    -0.264 OA
ATOM     13  H   UNL d   1     -27.629  20.979  23.693  0.00  0.00     0.163 HD
BRANCH  11  14
ATOM     14  C   UNL d   1     -30.051  21.586  24.417  0.00  0.00     0.203 A 
ATOM     15  N   UNL d   1     -31.371  21.245  24.280  0.00  0.00    -0.301 N 
ATOM     16  C   UNL d   1     -31.770  20.720  25.485  0.00  0.00     0.058 A 
ATOM     17  C   UNL d   1     -32.254  21.337  23.247  0.00  0.00     0.099 A 
ATOM     18  C   UNL d   1     -30.658  20.761  26.324  0.00  0.00     0.149 A 
ATOM     19  C   UNL d   1     -33.091  20.275  25.653  0.00  0.00     0.031 A 
ATOM     20  N   UNL d   1     -29.654  21.281  25.643  0.00  0.00    -0.236 NA
ATOM     21  C   UNL d   1     -33.963  20.372  24.611  0.00  0.00     0.004 A 
ATOM     22  C   UNL d   1     -33.529  20.913  23.391  0.00  0.00     0.018 A 
ENDBRANCH  11  14
ENDBRANCH   1  10
BRANCH   9  23
ATOM     23  C   UNL d   1     -22.708  24.291  23.063  0.00  0.00     0.097 A 
ATOM     24  C   UNL d   1     -22.226  25.127  22.062  0.00  0.00     0.145 A 
ATOM     25  C   UNL d   1     -20.874  25.413  21.994  0.00  0.00     0.045 A 
ATOM     26  F   UNL d   1     -23.077  25.664  21.161  0.00  0.00    -0.204 F 
ATOM     27  C   UNL d   1     -20.002  24.859  22.914  0.00  0.00     0.003 A 
ATOM     28  C   UNL d   1     -20.479  24.023  23.906  0.00  0.00     0.002 A 
ATOM     29  C   UNL d   1     -21.828  23.737  23.983  0.00  0.00     0.035 A 
ENDBRANCH   9  23
TORSDOF 3
ENDMDL
