MODEL 1
REMARK VINA RESULT:     -10.4      0.000      0.000
REMARK  6 active torsions:
REMARK  status: ('A' for Active; 'I' for Inactive)
REMARK    1  A    between atoms: C_2  and  O_3 
REMARK    2  A    between atoms: C_2  and  C_32 
REMARK    3  A    between atoms: O_3  and  C_4 
REMARK    4  A    between atoms: C_6  and  N_7 
REMARK    5  A    between atoms: C_20  and  C_21 
REMARK       I    between atoms: C_21  and  N_23 
REMARK    6  A    between atoms: N_23  and  C_24 
ROOT
ATOM      1  C   UNL d   1     -24.542  23.497  22.831  0.00  0.00     0.087 A 
ATOM      2  C   UNL d   1     -25.798  22.932  22.952  0.00  0.00     0.073 A 
ATOM      3  C   UNL d   1     -26.708  23.448  23.865  0.00  0.00     0.104 A 
ATOM      4  C   UNL d   1     -26.361  24.542  24.659  0.00  0.00     0.146 A 
ATOM      5  F   UNL d   1     -27.254  25.042  25.541  0.00  0.00    -0.204 F 
ATOM      6  C   UNL d   1     -25.112  25.108  24.550  0.00  0.00     0.064 A 
ATOM      7  C   UNL d   1     -24.189  24.593  23.632  0.00  0.00     0.068 A 
ENDROOT
BRANCH   7   8
ATOM      8  C   UNL d   1     -22.853  25.200  23.508  0.00  0.00     0.259 C 
ATOM      9  O   UNL d   1     -22.695  26.188  22.817  0.00  0.00    -0.267 OA
ATOM     10  N   UNL d   1     -21.805  24.659  24.161  0.00  0.00    -0.318 N 
ATOM     11  H   UNL d   1     -21.906  23.816  24.629  0.00  0.00     0.169 HD
BRANCH  10  12
ATOM     12  C   UNL d   1     -20.568  25.317  24.165  0.00  0.00     0.113 A 
ATOM     13  C   UNL d   1     -20.354  26.394  25.019  0.00  0.00     0.146 A 
ATOM     14  C   UNL d   1     -19.131  27.041  25.020  0.00  0.00     0.045 A 
ATOM     15  F   UNL d   1     -21.338  26.807  25.846  0.00  0.00    -0.204 F 
ATOM     16  C   UNL d   1     -18.122  26.618  24.173  0.00  0.00     0.006 A 
ATOM     17  C   UNL d   1     -18.332  25.549  23.323  0.00  0.00     0.045 A 
ATOM     18  C   UNL d   1     -19.549  24.892  23.320  0.00  0.00     0.146 A 
ATOM     19  F   UNL d   1     -19.751  23.843  22.492  0.00  0.00    -0.204 F 
ENDBRANCH  10  12
ENDBRANCH   7   8
BRANCH   1  20
ATOM     20  O   UNL d   1     -23.651  22.992  21.939  0.00  0.00    -0.336 OA
BRANCH  20  21
ATOM     21  C   UNL d   1     -23.821  23.367  20.571  0.00  0.00     0.232 C 
ATOM     22  C   UNL d   1     -24.141  22.123  19.738  0.00  0.00     0.049 C 
BRANCH  21  23
ATOM     23  C   UNL d   1     -22.532  24.009  20.054  0.00  0.00     0.413 C 
ATOM     24  F   UNL d   1     -21.498  23.780  20.969  0.00  0.00    -0.168 F 
ATOM     25  F   UNL d   1     -22.194  23.447  18.819  0.00  0.00    -0.168 F 
ATOM     26  F   UNL d   1     -22.725  25.386  19.903  0.00  0.00    -0.168 F 
ENDBRANCH  21  23
ENDBRANCH  20  21
ENDBRANCH   1  20
BRANCH   3  27
ATOM     27  N   UNL d   1     -27.976  22.875  23.984  0.00  0.00    -0.178 N 
ATOM     28  C   UNL d   1     -28.405  22.084  24.992  0.00  0.00     0.351 A 
ATOM     29  N   UNL d   1     -29.687  21.773  24.739  0.00  0.00    -0.284 N 
ATOM     30  O   UNL d   1     -27.751  21.722  25.953  0.00  0.00    -0.244 OA
ATOM     31  C   UNL d   1     -30.043  22.346  23.536  0.00  0.00     0.131 A 
ATOM     32  C   UNL d   1     -30.596  20.982  25.577  0.00  0.00     0.135 C 
ATOM     33  N   UNL d   1     -29.038  23.011  23.077  0.00  0.00    -0.149 NA
ATOM     34  C   UNL d   1     -31.404  22.183  22.899  0.00  0.00     0.081 C 
ATOM     35  C   UNL d   1     -32.381  21.706  23.982  0.00  0.00     0.009 C 
ATOM     36  C   UNL d   1     -31.769  20.506  24.713  0.00  0.00     0.021 C 
ENDBRANCH   3  27
TORSDOF 6
ENDMDL
