MODEL 1
REMARK VINA RESULT:     -12.5      0.000      0.000
REMARK  7 active torsions:
REMARK  status: ('A' for Active; 'I' for Inactive)
REMARK    1  A    between atoms: C_4  and  C_5 
REMARK    2  A    between atoms: C_5  and  O_7 
REMARK    3  A    between atoms: C_10  and  C_11 
REMARK    4  A    between atoms: C_14  and  C_15 
REMARK    5  A    between atoms: C_19  and  O_20 
REMARK    6  A    between atoms: O_20  and  C_21 
REMARK    7  A    between atoms: C_21  and  C_22 
ROOT
ATOM      1  C   UNL d   1     -27.595  22.364  23.129  0.00  0.00     0.010 A 
ATOM      2  C   UNL d   1     -26.884  21.753  22.093  0.00  0.00     0.016 A 
ATOM      3  C   UNL d   1     -25.577  22.113  21.851  0.00  0.00     0.013 A 
ATOM      4  C   UNL d   1     -24.960  23.079  22.646  0.00  0.00    -0.026 A 
ATOM      5  C   UNL d   1     -25.668  23.686  23.683  0.00  0.00     0.013 A 
ATOM      6  C   UNL d   1     -26.976  23.332  23.924  0.00  0.00     0.016 A 
ENDROOT
BRANCH   1   7
ATOM      7  C   UNL d   1     -28.999  21.984  23.386  0.00  0.00     0.139 A 
ATOM      8  N   UNL d   1     -29.987  22.113  22.531  0.00  0.00    -0.227 NA
ATOM      9  C   UNL d   1     -31.129  21.673  23.085  0.00  0.00     0.102 A 
ATOM     10  C   UNL d   1     -32.461  21.583  22.621  0.00  0.00     0.069 A 
ATOM     11  C   UNL d   1     -30.823  21.236  24.386  0.00  0.00     0.064 A 
ATOM     12  C   UNL d   1     -33.443  21.060  23.459  0.00  0.00     0.027 A 
ATOM     13  C   UNL d   1     -33.122  20.641  24.736  0.00  0.00    -0.059 A 
ATOM     14  C   UNL d   1     -34.199  20.083  25.632  0.00  0.00     0.048 C 
ATOM     15  C   UNL d   1     -31.823  20.725  25.200  0.00  0.00     0.038 A 
ATOM     16  N   UNL d   1     -29.467  21.444  24.552  0.00  0.00    -0.338 N 
ATOM     17  H   UNL d   1     -28.946  21.244  25.346  0.00  0.00     0.167 HD
BRANCH  10  18
ATOM     18  C   UNL d   1     -32.806  22.033  21.263  0.00  0.00     0.178 C 
ATOM     19  O   UNL d   1     -33.955  22.318  20.990  0.00  0.00    -0.646 OA
BRANCH  18  20
ATOM     20  O   UNL d   1     -31.845  22.132  20.322  0.00  0.00    -0.773 OA
ATOM     21  H   UNL d   1     -31.015  21.664  20.490  0.00  0.00     0.167 HD
ENDBRANCH  18  20
ENDBRANCH  10  18
ENDBRANCH   1   7
BRANCH   4  22
ATOM     22  C   UNL d   1     -23.551  23.462  22.387  0.00  0.00    -0.023 A 
ATOM     23  C   UNL d   1     -22.627  23.475  23.430  0.00  0.00     0.049 A 
ATOM     24  C   UNL d   1     -21.311  23.830  23.182  0.00  0.00     0.070 A 
ATOM     25  C   UNL d   1     -20.919  24.181  21.898  0.00  0.00     0.037 A 
ATOM     26  C   UNL d   1     -21.836  24.174  20.863  0.00  0.00     0.004 A 
ATOM     27  C   UNL d   1     -23.148  23.817  21.101  0.00  0.00     0.012 A 
BRANCH  24  28
ATOM     28  O   UNL d   1     -20.407  23.838  24.195  0.00  0.00    -0.347 OA
BRANCH  28  29
ATOM     29  C   UNL d   1     -19.563  24.987  24.301  0.00  0.00     0.214 C 
BRANCH  29  30
ATOM     30  C   UNL d   1     -20.254  26.044  25.122  0.00  0.00    -0.034 A 
ATOM     31  C   UNL d   1     -21.246  26.822  24.555  0.00  0.00     0.009 A 
ATOM     32  C   UNL d   1     -21.880  27.791  25.309  0.00  0.00     0.001 A 
ATOM     33  C   UNL d   1     -21.523  27.984  26.630  0.00  0.00     0.000 A 
ATOM     34  C   UNL d   1     -20.531  27.207  27.198  0.00  0.00     0.001 A 
ATOM     35  C   UNL d   1     -19.900  26.233  26.445  0.00  0.00     0.009 A 
ENDBRANCH  29  30
ENDBRANCH  28  29
ENDBRANCH  24  28
ENDBRANCH   4  22
TORSDOF 7
ENDMDL
