MODEL 1
REMARK VINA RESULT:      -9.4      0.000      0.000
REMARK  7 active torsions:
REMARK  status: ('A' for Active; 'I' for Inactive)
REMARK    1  A    between atoms: C_2  and  N_3 
REMARK    2  A    between atoms: C_4  and  C_5 
REMARK    3  A    between atoms: C_5  and  O_6 
REMARK    4  A    between atoms: N_8  and  C_9 
REMARK    5  A    between atoms: C_12  and  C_13 
REMARK    6  A    between atoms: C_13  and  C_15 
REMARK    7  A    between atoms: N_20  and  C_21 
ROOT
ATOM      1  C   UNL d   1     -29.025  22.116  22.022  0.00  0.00     0.103 A 
ATOM      2  C   UNL d   1     -28.343  22.907  22.930  0.00  0.00     0.048 A 
ATOM      3  C   UNL d   1     -26.961  23.051  22.809  0.00  0.00    -0.010 A 
ATOM      4  C   UNL d   1     -26.183  23.869  23.742  0.00  0.00    -0.018 A 
ATOM      5  C   UNL d   1     -24.856  23.976  23.576  0.00  0.00     0.109 A 
ATOM      6  N   UNL d   1     -24.192  23.346  22.560  0.00  0.00    -0.288 N 
ATOM      7  C   UNL d   1     -24.827  22.574  21.656  0.00  0.00     0.263 A 
ATOM      8  O   UNL d   1     -24.201  22.029  20.763  0.00  0.00    -0.267 OA
ATOM      9  C   UNL d   1     -26.278  22.398  21.756  0.00  0.00     0.046 A 
ATOM     10  C   UNL d   1     -26.988  21.609  20.849  0.00  0.00     0.062 A 
ATOM     11  C   UNL d   1     -28.342  21.474  20.985  0.00  0.00     0.146 A 
ATOM     12  F   UNL d   1     -29.028  20.711  20.106  0.00  0.00    -0.204 F 
ENDROOT
BRANCH   1  13
ATOM     13  N   UNL d   1     -30.409  21.962  22.139  0.00  0.00    -0.178 N 
ATOM     14  N   UNL d   1     -31.347  22.060  21.102  0.00  0.00    -0.147 NA
ATOM     15  C   UNL d   1     -32.523  21.857  21.602  0.00  0.00     0.154 A 
ATOM     16  N   UNL d   1     -32.398  21.628  22.950  0.00  0.00    -0.283 N 
ATOM     17  C   UNL d   1     -31.092  21.700  23.273  0.00  0.00     0.351 A 
ATOM     18  O   UNL d   1     -30.614  21.554  24.384  0.00  0.00    -0.244 OA
BRANCH  15  19
ATOM     19  C   UNL d   1     -33.819  21.873  20.832  0.00  0.00     0.244 C 
BRANCH  19  20
ATOM     20  O   UNL d   1     -34.624  22.966  21.276  0.00  0.00    -0.393 OA
ATOM     21  H   UNL d   1     -34.150  23.608  21.822  0.00  0.00     0.209 HD
ENDBRANCH  19  20
ENDBRANCH  15  19
BRANCH  16  22
ATOM     22  C   UNL d   1     -33.498  21.356  23.880  0.00  0.00     0.131 C 
ATOM     23  C   UNL d   1     -33.388  19.919  24.394  0.00  0.00     0.027 C 
ENDBRANCH  16  22
ENDBRANCH   1  13
BRANCH   4  24
ATOM     24  C   UNL d   1     -26.868  24.583  24.879  0.00  0.00     0.124 C 
ATOM     25  C   UNL d   1     -25.987  25.738  25.360  0.00  0.00     0.024 C 
BRANCH  24  26
ATOM     26  C   UNL d   1     -27.097  23.604  26.032  0.00  0.00     0.395 C 
ATOM     27  F   UNL d   1     -26.010  22.729  26.124  0.00  0.00    -0.170 F 
ATOM     28  F   UNL d   1     -27.225  24.316  27.230  0.00  0.00    -0.170 F 
ATOM     29  F   UNL d   1     -28.266  22.873  25.797  0.00  0.00    -0.170 F 
ENDBRANCH  24  26
ENDBRANCH   4  24
BRANCH   6  30
ATOM     30  C   UNL d   1     -22.805  23.509  22.454  0.00  0.00     0.048 A 
ATOM     31  C   UNL d   1     -22.271  24.258  21.414  0.00  0.00    -0.035 A 
ATOM     32  C   UNL d   1     -20.902  24.417  21.312  0.00  0.00     0.009 A 
ATOM     33  C   UNL d   1     -23.182  24.898  20.398  0.00  0.00     0.050 C 
ATOM     34  C   UNL d   1     -20.065  23.831  22.244  0.00  0.00     0.001 A 
ATOM     35  C   UNL d   1     -20.595  23.085  23.282  0.00  0.00     0.002 A 
ATOM     36  C   UNL d   1     -21.963  22.927  23.392  0.00  0.00     0.030 A 
ENDBRANCH   6  30
TORSDOF 7
ENDMDL
