MODEL 1
REMARK VINA RESULT:     -10.2      0.000      0.000
REMARK  5 active torsions:
REMARK  status: ('A' for Active; 'I' for Inactive)
REMARK    1  A    between atoms: C_5  and  N_6 
REMARK    2  A    between atoms: N_6  and  C_7 
REMARK    3  A    between atoms: C_10  and  C_11 
REMARK    4  A    between atoms: C_20  and  C_21 
REMARK    5  A    between atoms: C_21  and  O_23 
ROOT
ATOM      1  C   UNL d   1     -25.073  22.421  22.152  0.00  0.00     0.050 A 
ATOM      2  C   UNL d   1     -25.490  23.299  23.152  0.00  0.00     0.033 A 
ATOM      3  C   UNL d   1     -26.782  23.182  23.633  0.00  0.00     0.035 A 
ATOM      4  C   UNL d   1     -27.613  22.193  23.111  0.00  0.00     0.068 A 
ATOM      5  N   UNL d   1     -27.179  21.372  22.163  0.00  0.00    -0.258 NA
ATOM      6  C   UNL d   1     -25.958  21.458  21.680  0.00  0.00     0.146 A 
ENDROOT
BRANCH   1   7
ATOM      7  N   UNL d   1     -23.779  22.505  21.635  0.00  0.00    -0.354 N 
ATOM      8  H   UNL d   1     -23.532  21.983  20.856  0.00  0.00     0.166 HD
BRANCH   7   9
ATOM      9  C   UNL d   1     -22.843  23.338  22.237  0.00  0.00     0.049 A 
ATOM     10  C   UNL d   1     -22.542  23.191  23.586  0.00  0.00     0.031 A 
ATOM     11  C   UNL d   1     -21.617  24.022  24.181  0.00  0.00     0.009 A 
ATOM     12  C   UNL d   1     -20.973  25.001  23.441  0.00  0.00    -0.061 A 
ATOM     13  C   UNL d   1     -19.959  25.897  24.105  0.00  0.00     0.048 C 
ATOM     14  C   UNL d   1     -21.257  25.163  22.103  0.00  0.00     0.027 A 
ATOM     15  C   UNL d   1     -22.196  24.332  21.484  0.00  0.00     0.064 A 
BRANCH  15  16
ATOM     16  C   UNL d   1     -22.506  24.499  20.054  0.00  0.00     0.178 C 
ATOM     17  O   UNL d   1     -22.572  23.526  19.329  0.00  0.00    -0.646 OA
BRANCH  16  18
ATOM     18  O   UNL d   1     -22.716  25.731  19.550  0.00  0.00    -0.773 OA
ATOM     19  H   UNL d   1     -22.058  26.068  18.928  0.00  0.00     0.167 HD
ENDBRANCH  16  18
ENDBRANCH  15  16
ENDBRANCH   7   9
ENDBRANCH   1   7
BRANCH   4  20
ATOM     20  C   UNL d   1     -28.999  22.056  23.623  0.00  0.00     0.017 A 
ATOM     21  C   UNL d   1     -30.098  22.286  22.790  0.00  0.00     0.064 A 
ATOM     22  C   UNL d   1     -31.371  22.146  23.307  0.00  0.00     0.141 A 
ATOM     23 CL   UNL d   1     -29.867  22.740  21.130  0.00  0.00    -0.082 Cl
ATOM     24  N   UNL d   1     -31.555  21.801  24.567  0.00  0.00    -0.271 NA
ATOM     25  C   UNL d   1     -30.546  21.575  25.386  0.00  0.00     0.117 A 
ATOM     26  C   UNL d   1     -29.242  21.686  24.949  0.00  0.00     0.034 A 
ENDBRANCH   4  20
TORSDOF 5
ENDMDL
