MODEL 1
REMARK VINA RESULT:     -10.3      0.000      0.000
REMARK  1 active torsions:
REMARK  status: ('A' for Active; 'I' for Inactive)
REMARK    1  A    between atoms: C_5  and  C_6 
ROOT
ATOM      1  C   UNL d   1     -25.661  22.554  23.916  0.00  0.00     0.024 C 
ATOM      2  C   UNL d   1     -26.984  22.822  23.888  0.00  0.00     0.018 C 
ATOM      3  C   UNL d   1     -27.633  23.638  22.783  0.00  0.00     0.218 C 
ATOM      4  O   UNL d   1     -28.738  22.897  22.266  0.00  0.00    -0.346 OA
ATOM      5  C   UNL d   1     -29.633  22.341  23.119  0.00  0.00     0.084 A 
ATOM      6  C   UNL d   1     -30.896  22.078  22.664  0.00  0.00     0.050 A 
ATOM      7  C   UNL d   1     -31.840  21.469  23.506  0.00  0.00    -0.023 A 
ATOM      8  C   UNL d   1     -33.144  21.196  23.053  0.00  0.00     0.012 A 
ATOM      9  C   UNL d   1     -34.039  20.603  23.889  0.00  0.00     0.001 A 
ATOM     10  C   UNL d   1     -33.688  20.265  25.195  0.00  0.00     0.001 A 
ATOM     11  C   UNL d   1     -32.439  20.519  25.673  0.00  0.00     0.012 A 
ATOM     12  C   UNL d   1     -31.487  21.134  24.839  0.00  0.00    -0.025 A 
ATOM     13  C   UNL d   1     -30.194  21.418  25.300  0.00  0.00     0.030 A 
ATOM     14  C   UNL d   1     -29.285  22.019  24.449  0.00  0.00     0.049 A 
ATOM     15  C   UNL d   1     -27.918  22.341  24.934  0.00  0.00     0.193 C 
ATOM     16  O   UNL d   1     -27.589  22.219  26.100  0.00  0.00    -0.287 OA
ENDROOT
BRANCH   1  17
ATOM     17  C   UNL d   1     -24.760  23.201  22.948  0.00  0.00    -0.035 A 
ATOM     18  C   UNL d   1     -24.180  24.439  23.246  0.00  0.00     0.012 A 
ATOM     19  C   UNL d   1     -23.338  25.038  22.335  0.00  0.00     0.007 A 
ATOM     20  C   UNL d   1     -23.065  24.418  21.128  0.00  0.00    -0.062 A 
ATOM     21  C   UNL d   1     -22.143  25.082  20.136  0.00  0.00     0.048 C 
ATOM     22  C   UNL d   1     -23.634  23.194  20.826  0.00  0.00     0.007 A 
ATOM     23  C   UNL d   1     -24.474  22.579  21.729  0.00  0.00     0.012 A 
ENDBRANCH   1  17
TORSDOF 1
ENDMDL
