MODEL 1
REMARK VINA RESULT:      -8.6      0.000      0.000
REMARK  10 active torsions:
REMARK  status: ('A' for Active; 'I' for Inactive)
REMARK    1  A    between atoms: C_2  and  C_3 
REMARK    2  A    between atoms: C_3  and  C_4 
REMARK    3  A    between atoms: C_4  and  O_6 
REMARK    4  A    between atoms: O_6  and  C_7 
REMARK    5  A    between atoms: C_9  and  N_10 
REMARK    6  A    between atoms: C_12  and  C_13 
REMARK    7  A    between atoms: C_13  and  O_14 
REMARK    8  A    between atoms: C_22  and  C_23 
REMARK       I    between atoms: C_23  and  N_25 
REMARK    9  A    between atoms: N_25  and  C_26 
REMARK   10  A    between atoms: C_32  and  O_33 
ROOT
ATOM      1  C   UNL d   1     -24.198  23.771  22.872  0.00  0.00     0.087 A 
ATOM      2  C   UNL d   1     -25.443  23.169  22.944  0.00  0.00     0.073 A 
ATOM      3  C   UNL d   1     -26.399  23.654  23.825  0.00  0.00     0.104 A 
ATOM      4  C   UNL d   1     -26.107  24.741  24.649  0.00  0.00     0.146 A 
ATOM      5  F   UNL d   1     -27.041  25.204  25.509  0.00  0.00    -0.204 F 
ATOM      6  C   UNL d   1     -24.871  25.342  24.589  0.00  0.00     0.064 A 
ATOM      7  C   UNL d   1     -23.903  24.863  23.700  0.00  0.00     0.068 A 
ENDROOT
BRANCH   7   8
ATOM      8  C   UNL d   1     -22.578  25.504  23.634  0.00  0.00     0.259 C 
ATOM      9  O   UNL d   1     -22.386  26.427  22.865  0.00  0.00    -0.267 OA
ATOM     10  N   UNL d   1     -21.578  25.068  24.425  0.00  0.00    -0.319 N 
ATOM     11  H   UNL d   1     -21.744  24.364  25.071  0.00  0.00     0.169 HD
BRANCH  10  12
ATOM     12  C   UNL d   1     -20.300  25.631  24.314  0.00  0.00     0.094 A 
ATOM     13  C   UNL d   1     -19.358  25.082  23.443  0.00  0.00     0.191 A 
ATOM     14  N   UNL d   1     -18.154  25.615  23.334  0.00  0.00    -0.235 NA
ATOM     15  C   UNL d   1     -17.795  26.668  24.043  0.00  0.00     0.120 A 
ATOM     16  C   UNL d   1     -18.672  27.262  24.929  0.00  0.00     0.028 A 
ATOM     17  C   UNL d   1     -19.949  26.740  25.073  0.00  0.00    -0.029 A 
ATOM     18  C   UNL d   1     -20.933  27.362  26.031  0.00  0.00     0.050 C 
BRANCH  13  19
ATOM     19  O   UNL d   1     -19.683  23.995  22.698  0.00  0.00    -0.338 OA
ATOM     20  C   UNL d   1     -19.217  23.971  21.347  0.00  0.00     0.211 C 
ENDBRANCH  13  19
ENDBRANCH  10  12
ENDBRANCH   7   8
BRANCH   1  21
ATOM     21  O   UNL d   1     -23.264  23.300  22.006  0.00  0.00    -0.345 OA
BRANCH  21  22
ATOM     22  C   UNL d   1     -23.442  23.617  20.625  0.00  0.00     0.124 C 
ATOM     23  C   UNL d   1     -22.178  24.295  20.091  0.00  0.00     0.040 C 
BRANCH  22  24
ATOM     24  C   UNL d   1     -23.703  22.332  19.836  0.00  0.00     0.032 C 
BRANCH  24  25
ATOM     25  C   UNL d   1     -25.146  22.330  19.329  0.00  0.00    -0.002 C 
ATOM     26  C   UNL d   1     -26.050  21.660  20.365  0.00  0.00     0.005 C 
ENDBRANCH  24  25
ENDBRANCH  22  24
ENDBRANCH  21  22
ENDBRANCH   1  21
BRANCH   3  27
ATOM     27  N   UNL d   1     -27.656  23.048  23.891  0.00  0.00    -0.178 N 
ATOM     28  C   UNL d   1     -28.123  22.285  24.902  0.00  0.00     0.351 A 
ATOM     29  N   UNL d   1     -29.371  21.899  24.571  0.00  0.00    -0.287 N 
ATOM     30  O   UNL d   1     -27.526  21.998  25.924  0.00  0.00    -0.244 OA
ATOM     31  C   UNL d   1     -29.677  22.429  23.342  0.00  0.00     0.154 A 
ATOM     32  C   UNL d   1     -30.251  21.056  25.384  0.00  0.00     0.163 C 
ATOM     33  N   UNL d   1     -28.665  23.118  22.921  0.00  0.00    -0.147 NA
BRANCH  31  34
ATOM     34  C   UNL d   1     -30.977  22.241  22.604  0.00  0.00     0.244 C 
BRANCH  34  35
ATOM     35  O   UNL d   1     -32.022  22.924  23.299  0.00  0.00    -0.393 OA
ATOM     36  H   UNL d   1     -32.526  23.536  22.746  0.00  0.00     0.209 HD
ENDBRANCH  34  35
ENDBRANCH  31  34
ENDBRANCH   3  27
TORSDOF 10
ENDMDL
