MODEL 1
REMARK VINA RESULT:     -10.4      0.000      0.000
REMARK  3 active torsions:
REMARK  status: ('A' for Active; 'I' for Inactive)
REMARK       I    between atoms: C_2  and  N_3 
REMARK    1  A    between atoms: C_2  and  C_20 
REMARK    2  A    between atoms: N_3  and  C_4 
REMARK    3  A    between atoms: N_12  and  C_13 
ROOT
ATOM      1  C   UNL d   1     -26.070  22.214  22.633  0.00  0.00     0.121 C 
ATOM      2  C   UNL d   1     -26.414  22.320  21.142  0.00  0.00     0.030 C 
ATOM      3  C   UNL d   1     -27.445  21.247  20.779  0.00  0.00     0.008 C 
ATOM      4  C   UNL d   1     -28.796  21.601  21.412  0.00  0.00     0.060 C 
ATOM      5  C   UNL d   1     -28.571  21.898  22.874  0.00  0.00     0.046 A 
ATOM      6  C   UNL d   1     -27.358  22.174  23.418  0.00  0.00     0.008 A 
ATOM      7  C   UNL d   1     -27.538  22.398  24.781  0.00  0.00     0.150 A 
ATOM      8  N   UNL d   1     -28.815  22.268  25.050  0.00  0.00    -0.179 NA
ATOM      9  N   UNL d   1     -29.487  21.957  23.858  0.00  0.00    -0.235 N 
ENDROOT
BRANCH   1  10
ATOM     10  N   UNL d   1     -25.280  23.378  23.042  0.00  0.00    -0.347 N 
ATOM     11  C   UNL d   1     -23.934  23.314  23.040  0.00  0.00     0.270 C 
ATOM     12  O   UNL d   1     -23.376  22.290  22.701  0.00  0.00    -0.266 OA
ATOM     13  H   UNL d   1     -25.727  24.196  23.313  0.00  0.00     0.163 HD
BRANCH  11  14
ATOM     14  C   UNL d   1     -23.135  24.492  23.453  0.00  0.00     0.127 A 
ATOM     15  N   UNL d   1     -23.652  25.710  23.343  0.00  0.00    -0.255 NA
ATOM     16  C   UNL d   1     -22.981  26.782  23.703  0.00  0.00     0.120 A 
ATOM     17  C   UNL d   1     -21.694  26.681  24.204  0.00  0.00     0.061 A 
ATOM     18  C   UNL d   1     -21.111  25.426  24.332  0.00  0.00     0.120 A 
ATOM     19  C   UNL d   1     -21.847  24.312  23.949  0.00  0.00     0.079 A 
ATOM     20  F   UNL d   1     -19.858  25.293  24.818  0.00  0.00    -0.206 F 
ENDBRANCH  11  14
ENDBRANCH   1  10
BRANCH   9  21
ATOM     21  C   UNL d   1     -30.865  21.738  23.720  0.00  0.00     0.097 A 
ATOM     22  C   UNL d   1     -31.515  20.836  24.554  0.00  0.00     0.145 A 
ATOM     23  C   UNL d   1     -32.875  20.624  24.414  0.00  0.00     0.045 A 
ATOM     24  F   UNL d   1     -30.819  20.166  25.499  0.00  0.00    -0.204 F 
ATOM     25  C   UNL d   1     -33.587  21.314  23.451  0.00  0.00     0.003 A 
ATOM     26  C   UNL d   1     -32.941  22.208  22.616  0.00  0.00     0.002 A 
ATOM     27  C   UNL d   1     -31.584  22.424  22.751  0.00  0.00     0.035 A 
ENDBRANCH   9  21
TORSDOF 3
ENDMDL
