MODEL 1
REMARK VINA RESULT:     -11.0      0.000      0.000
REMARK  6 active torsions:
REMARK  status: ('A' for Active; 'I' for Inactive)
REMARK    1  A    between atoms: C_2  and  O_3 
REMARK    2  A    between atoms: C_2  and  C_32 
REMARK    3  A    between atoms: O_3  and  C_4 
REMARK    4  A    between atoms: C_6  and  N_7 
REMARK    5  A    between atoms: C_20  and  C_21 
REMARK       I    between atoms: C_21  and  N_23 
REMARK    6  A    between atoms: N_23  and  C_24 
ROOT
ATOM      1  C   UNL d   1     -24.677  23.381  22.633  0.00  0.00     0.087 A 
ATOM      2  C   UNL d   1     -25.937  22.835  22.805  0.00  0.00     0.073 A 
ATOM      3  C   UNL d   1     -26.796  23.353  23.763  0.00  0.00     0.105 A 
ATOM      4  C   UNL d   1     -26.390  24.420  24.567  0.00  0.00     0.146 A 
ATOM      5  F   UNL d   1     -27.229  24.917  25.502  0.00  0.00    -0.204 F 
ATOM      6  C   UNL d   1     -25.137  24.967  24.409  0.00  0.00     0.064 A 
ATOM      7  C   UNL d   1     -24.267  24.453  23.440  0.00  0.00     0.068 A 
ENDROOT
BRANCH   7   8
ATOM      8  C   UNL d   1     -22.925  25.035  23.268  0.00  0.00     0.259 C 
ATOM      9  O   UNL d   1     -22.785  26.065  22.637  0.00  0.00    -0.267 OA
ATOM     10  N   UNL d   1     -21.852  24.426  23.813  0.00  0.00    -0.318 N 
ATOM     11  H   UNL d   1     -21.951  23.563  24.244  0.00  0.00     0.169 HD
BRANCH  10  12
ATOM     12  C   UNL d   1     -20.595  25.040  23.755  0.00  0.00     0.113 A 
ATOM     13  C   UNL d   1     -20.233  25.980  24.713  0.00  0.00     0.146 A 
ATOM     14  C   UNL d   1     -18.991  26.584  24.653  0.00  0.00     0.045 A 
ATOM     15  F   UNL d   1     -21.095  26.303  25.702  0.00  0.00    -0.204 F 
ATOM     16  C   UNL d   1     -18.107  26.254  23.642  0.00  0.00     0.006 A 
ATOM     17  C   UNL d   1     -18.462  25.319  22.687  0.00  0.00     0.045 A 
ATOM     18  C   UNL d   1     -19.701  24.707  22.743  0.00  0.00     0.146 A 
ATOM     19  F   UNL d   1     -20.046  23.789  21.813  0.00  0.00    -0.204 F 
ENDBRANCH  10  12
ENDBRANCH   7   8
BRANCH   1  20
ATOM     20  O   UNL d   1     -23.840  22.877  21.692  0.00  0.00    -0.336 OA
BRANCH  20  21
ATOM     21  C   UNL d   1     -23.956  23.406  20.370  0.00  0.00     0.232 C 
ATOM     22  C   UNL d   1     -22.576  23.844  19.873  0.00  0.00     0.049 C 
BRANCH  21  23
ATOM     23  C   UNL d   1     -24.516  22.330  19.438  0.00  0.00     0.413 C 
ATOM     24  F   UNL d   1     -25.797  21.963  19.865  0.00  0.00    -0.168 F 
ATOM     25  F   UNL d   1     -24.585  22.834  18.134  0.00  0.00    -0.168 F 
ATOM     26  F   UNL d   1     -23.678  21.211  19.461  0.00  0.00    -0.168 F 
ENDBRANCH  21  23
ENDBRANCH  20  21
ENDBRANCH   1  20
BRANCH   3  27
ATOM     27  N   UNL d   1     -28.069  22.803  23.929  0.00  0.00    -0.176 N 
ATOM     28  C   UNL d   1     -28.464  22.004  24.941  0.00  0.00     0.372 A 
ATOM     29  N   UNL d   1     -29.759  21.689  24.737  0.00  0.00    -0.161 N 
ATOM     30  O   UNL d   1     -27.775  21.634  25.874  0.00  0.00    -0.242 OA
ATOM     31  C   UNL d   1     -30.174  22.301  23.569  0.00  0.00     0.176 A 
ATOM     32  N   UNL d   1     -30.660  20.900  25.463  0.00  0.00    -0.174 NA
ATOM     33  N   UNL d   1     -29.165  22.981  23.075  0.00  0.00    -0.143 NA
ATOM     34  C   UNL d   1     -31.512  22.127  23.137  0.00  0.00     0.056 A 
ATOM     35  C   UNL d   1     -32.348  21.354  23.876  0.00  0.00     0.025 A 
ATOM     36  C   UNL d   1     -31.886  20.742  25.056  0.00  0.00     0.139 A 
ENDBRANCH   3  27
TORSDOF 6
ENDMDL
