MODEL 1
REMARK VINA RESULT:      -9.6      0.000      0.000
REMARK  6 active torsions:
REMARK  status: ('A' for Active; 'I' for Inactive)
REMARK    1  A    between atoms: C_2  and  O_3 
REMARK    2  A    between atoms: O_3  and  C_4 
REMARK    3  A    between atoms: C_4  and  C_6 
REMARK    4  A    between atoms: C_8  and  N_9 
REMARK    5  A    between atoms: N_9  and  C_10 
REMARK    6  A    between atoms: C_19  and  C_20 
ROOT
ATOM      1  C   UNL d   1     -23.228  23.678  20.812  0.00  0.00     0.113 A 
ATOM      2  S   UNL d   1     -24.159  22.382  20.066  0.00  0.00    -0.044 SA
ATOM      3  C   UNL d   1     -24.971  22.091  21.542  0.00  0.00     0.172 A 
ATOM      4  N   UNL d   1     -24.554  22.904  22.467  0.00  0.00    -0.222 NA
ATOM      5  C   UNL d   1     -23.619  23.769  22.133  0.00  0.00     0.093 A 
ENDROOT
BRANCH   3   6
ATOM      6  N   UNL d   1     -25.938  21.126  21.726  0.00  0.00    -0.335 N 
ATOM      7  H   UNL d   1     -25.716  20.189  21.605  0.00  0.00     0.168 HD
BRANCH   6   8
ATOM      8  C   UNL d   1     -27.236  21.496  22.088  0.00  0.00     0.037 A 
ATOM      9  C   UNL d   1     -28.181  21.768  21.107  0.00  0.00     0.072 A 
ATOM     10  C   UNL d   1     -29.466  22.131  21.470  0.00  0.00     0.124 A 
ATOM     11  C   UNL d   1     -29.806  22.231  22.809  0.00  0.00    -0.023 A 
ATOM     12  F   UNL d   1     -30.388  22.392  20.518  0.00  0.00    -0.205 F 
ATOM     13  C   UNL d   1     -28.864  21.964  23.786  0.00  0.00     0.012 A 
ATOM     14  C   UNL d   1     -31.205  22.630  23.202  0.00  0.00     0.051 C 
ATOM     15  C   UNL d   1     -27.581  21.598  23.430  0.00  0.00     0.030 A 
ENDBRANCH   6   8
ENDBRANCH   3   6
BRANCH   1  16
ATOM     16  C   UNL d   1     -22.250  24.476  20.174  0.00  0.00     0.302 C 
ATOM     17  O   UNL d   1     -22.588  25.450  19.527  0.00  0.00    -0.259 OA
BRANCH  16  18
ATOM     18  O   UNL d   1     -20.942  24.157  20.282  0.00  0.00    -0.317 OA
BRANCH  18  19
ATOM     19  C   UNL d   1     -20.122  25.037  21.053  0.00  0.00     0.174 C 
ATOM     20  C   UNL d   1     -19.106  24.218  21.852  0.00  0.00     0.034 C 
ENDBRANCH  18  19
ENDBRANCH  16  18
ENDBRANCH   1  16
BRANCH   5  21
ATOM     21  C   UNL d   1     -23.045  24.750  23.083  0.00  0.00    -0.006 A 
ATOM     22  C   UNL d   1     -23.517  26.062  23.105  0.00  0.00     0.014 A 
ATOM     23  C   UNL d   1     -22.979  26.971  23.993  0.00  0.00     0.001 A 
ATOM     24  C   UNL d   1     -21.972  26.584  24.858  0.00  0.00     0.000 A 
ATOM     25  C   UNL d   1     -21.497  25.284  24.840  0.00  0.00     0.001 A 
ATOM     26  C   UNL d   1     -22.032  24.364  23.962  0.00  0.00     0.014 A 
ENDBRANCH   5  21
TORSDOF 6
ENDMDL
