MODEL 1
REMARK VINA RESULT:      -9.2      0.000      0.000
REMARK  7 active torsions:
REMARK  status: ('A' for Active; 'I' for Inactive)
REMARK    1  A    between atoms: C_2  and  N_3 
REMARK    2  A    between atoms: C_4  and  C_5 
REMARK    3  A    between atoms: C_5  and  O_6 
REMARK    4  A    between atoms: N_8  and  C_9 
REMARK    5  A    between atoms: C_12  and  C_13 
REMARK    6  A    between atoms: N_17  and  C_18 
REMARK    7  A    between atoms: C_23  and  C_24 
ROOT
ATOM      1  C   UNL d   1     -28.923  22.181  22.140  0.00  0.00     0.103 A 
ATOM      2  C   UNL d   1     -28.257  22.992  23.043  0.00  0.00     0.048 A 
ATOM      3  C   UNL d   1     -26.874  23.137  22.941  0.00  0.00    -0.010 A 
ATOM      4  C   UNL d   1     -26.114  23.977  23.869  0.00  0.00    -0.027 A 
ATOM      5  C   UNL d   1     -24.784  24.086  23.722  0.00  0.00     0.109 A 
ATOM      6  N   UNL d   1     -24.103  23.437  22.728  0.00  0.00    -0.288 N 
ATOM      7  C   UNL d   1     -24.720  22.644  21.831  0.00  0.00     0.263 A 
ATOM      8  O   UNL d   1     -24.078  22.083  20.962  0.00  0.00    -0.267 OA
ATOM      9  C   UNL d   1     -26.172  22.465  21.913  0.00  0.00     0.046 A 
ATOM     10  C   UNL d   1     -26.867  21.656  21.011  0.00  0.00     0.062 A 
ATOM     11  C   UNL d   1     -28.222  21.519  21.127  0.00  0.00     0.146 A 
ATOM     12  F   UNL d   1     -28.892  20.736  20.254  0.00  0.00    -0.204 F 
ENDROOT
BRANCH   1  13
ATOM     13  N   UNL d   1     -30.308  22.024  22.239  0.00  0.00    -0.178 N 
ATOM     14  N   UNL d   1     -31.230  22.090  21.185  0.00  0.00    -0.147 NA
ATOM     15  C   UNL d   1     -32.413  21.888  21.669  0.00  0.00     0.154 A 
ATOM     16  N   UNL d   1     -32.308  21.699  23.025  0.00  0.00    -0.283 N 
ATOM     17  C   UNL d   1     -31.007  21.781  23.368  0.00  0.00     0.351 A 
ATOM     18  O   UNL d   1     -30.547  21.658  24.488  0.00  0.00    -0.244 OA
BRANCH  15  19
ATOM     19  C   UNL d   1     -33.694  21.869  20.877  0.00  0.00     0.244 C 
BRANCH  19  20
ATOM     20  O   UNL d   1     -34.555  22.912  21.339  0.00  0.00    -0.393 OA
ATOM     21  H   UNL d   1     -34.265  23.325  22.164  0.00  0.00     0.209 HD
ENDBRANCH  19  20
ENDBRANCH  15  19
BRANCH  16  22
ATOM     22  C   UNL d   1     -33.421  21.445  23.943  0.00  0.00     0.131 C 
ATOM     23  C   UNL d   1     -33.472  19.953  24.283  0.00  0.00     0.027 C 
ENDBRANCH  16  22
ENDBRANCH   1  13
BRANCH   4  24
ATOM     24  C   UNL d   1     -26.818  24.713  24.980  0.00  0.00     0.013 C 
ATOM     25  C   UNL d   1     -26.974  23.785  26.187  0.00  0.00     0.015 C 
ATOM     26  C   UNL d   1     -25.995  25.939  25.383  0.00  0.00     0.015 C 
ENDBRANCH   4  24
BRANCH   6  27
ATOM     27  C   UNL d   1     -22.715  23.604  22.641  0.00  0.00     0.053 A 
ATOM     28  C   UNL d   1     -22.175  24.451  21.683  0.00  0.00     0.033 A 
ATOM     29  C   UNL d   1     -20.806  24.618  21.604  0.00  0.00     0.015 A 
ATOM     30  C   UNL d   1     -19.974  23.933  22.470  0.00  0.00     0.001 A 
ATOM     31  C   UNL d   1     -20.509  23.085  23.423  0.00  0.00     0.002 A 
ATOM     32  C   UNL d   1     -21.877  22.919  23.511  0.00  0.00     0.031 A 
BRANCH  28  33
ATOM     33  C   UNL d   1     -23.082  25.192  20.735  0.00  0.00     0.389 C 
ATOM     34  F   UNL d   1     -23.547  26.359  21.352  0.00  0.00    -0.209 F 
ATOM     35  F   UNL d   1     -22.372  25.528  19.577  0.00  0.00    -0.209 F 
ENDBRANCH  28  33
ENDBRANCH   6  27
TORSDOF 7
ENDMDL
