MODEL 1
REMARK VINA RESULT:      -9.5      0.000      0.000
REMARK  6 active torsions:
REMARK  status: ('A' for Active; 'I' for Inactive)
REMARK    1  A    between atoms: C_2  and  N_3 
REMARK    2  A    between atoms: C_4  and  C_5 
REMARK    3  A    between atoms: C_5  and  O_6 
REMARK    4  A    between atoms: N_8  and  C_9 
REMARK    5  A    between atoms: N_15  and  C_16 
REMARK    6  A    between atoms: C_25  and  C_26 
ROOT
ATOM      1  C   UNL d   1     -28.619  22.080  22.552  0.00  0.00     0.064 A 
ATOM      2  C   UNL d   1     -28.014  21.287  21.576  0.00  0.00     0.033 A 
ATOM      3  C   UNL d   1     -26.705  21.474  21.235  0.00  0.00     0.020 A 
ATOM      4  C   UNL d   1     -25.956  22.460  21.880  0.00  0.00     0.043 A 
ATOM      5  C   UNL d   1     -24.544  22.690  21.563  0.00  0.00     0.263 A 
ATOM      6  O   UNL d   1     -23.985  22.017  20.716  0.00  0.00    -0.267 OA
ATOM      7  N   UNL d   1     -23.870  23.656  22.219  0.00  0.00    -0.284 N 
ATOM      8  C   UNL d   1     -24.458  24.435  23.176  0.00  0.00     0.109 A 
ATOM      9  C   UNL d   1     -25.746  24.292  23.528  0.00  0.00    -0.027 A 
ATOM     10  C   UNL d   1     -26.559  23.265  22.875  0.00  0.00    -0.010 A 
ATOM     11  C   UNL d   1     -27.899  23.067  23.204  0.00  0.00     0.044 A 
ENDROOT
BRANCH   1  12
ATOM     12  N   UNL d   1     -29.962  21.874  22.876  0.00  0.00    -0.181 N 
ATOM     13  N   UNL d   1     -30.462  21.429  24.107  0.00  0.00    -0.147 NA
ATOM     14  C   UNL d   1     -31.752  21.365  24.020  0.00  0.00     0.154 A 
ATOM     15  N   UNL d   1     -32.130  21.758  22.759  0.00  0.00    -0.283 N 
ATOM     16  C   UNL d   1     -31.020  22.076  22.063  0.00  0.00     0.351 A 
ATOM     17  O   UNL d   1     -30.981  22.470  20.912  0.00  0.00    -0.244 OA
BRANCH  14  18
ATOM     18  C   UNL d   1     -32.685  20.932  25.121  0.00  0.00     0.244 C 
BRANCH  18  19
ATOM     19  O   UNL d   1     -32.095  21.225  26.389  0.00  0.00    -0.393 OA
ATOM     20  H   UNL d   1     -31.144  21.052  26.429  0.00  0.00     0.209 HD
ENDBRANCH  18  19
ENDBRANCH  14  18
BRANCH  15  21
ATOM     21  C   UNL d   1     -33.505  21.826  22.259  0.00  0.00     0.131 C 
ATOM     22  C   UNL d   1     -33.890  20.482  21.639  0.00  0.00     0.027 C 
ENDBRANCH  15  21
ENDBRANCH   1  12
BRANCH   9  23
ATOM     23  C   UNL d   1     -26.346  25.177  24.590  0.00  0.00     0.013 C 
ATOM     24  C   UNL d   1     -25.313  26.213  25.035  0.00  0.00     0.015 C 
ATOM     25  C   UNL d   1     -26.762  24.322  25.789  0.00  0.00     0.015 C 
ENDBRANCH   9  23
BRANCH   7  26
ATOM     26  C   UNL d   1     -22.521  23.869  21.908  0.00  0.00     0.102 A 
ATOM     27  C   UNL d   1     -21.528  23.405  22.762  0.00  0.00     0.064 A 
ATOM     28  C   UNL d   1     -20.197  23.616  22.453  0.00  0.00     0.026 A 
ATOM     29 CL   UNL d   1     -21.959  22.559  24.215  0.00  0.00    -0.082 Cl
ATOM     30  C   UNL d   1     -19.852  24.288  21.294  0.00  0.00     0.005 A 
ATOM     31  C   UNL d   1     -20.837  24.752  20.441  0.00  0.00     0.045 A 
ATOM     32  C   UNL d   1     -22.170  24.541  20.742  0.00  0.00     0.145 A 
ATOM     33  F   UNL d   1     -23.132  24.990  19.905  0.00  0.00    -0.204 F 
ENDBRANCH   7  26
TORSDOF 6
ENDMDL
