MODEL 1
REMARK VINA RESULT:     -11.1      0.000      0.000
REMARK  7 active torsions:
REMARK  status: ('A' for Active; 'I' for Inactive)
REMARK    1  A    between atoms: C_2  and  O_3 
REMARK    2  A    between atoms: C_2  and  C_4 
REMARK    3  A    between atoms: C_8  and  C_9 
REMARK       I    between atoms: C_9  and  N_11 
REMARK    4  A    between atoms: N_11  and  C_12 
REMARK    5  A    between atoms: C_16  and  C_17 
REMARK    6  A    between atoms: C_21  and  O_22 
REMARK    7  A    between atoms: O_22  and  C_23 
ROOT
ATOM      1  C   UNL d   1     -26.003  22.611  22.575  0.00  0.00     0.113 A 
ATOM      2  C   UNL d   1     -26.819  22.933  23.655  0.00  0.00     0.147 A 
ATOM      3  F   UNL d   1     -26.271  23.387  24.803  0.00  0.00    -0.204 F 
ATOM      4  C   UNL d   1     -28.188  22.788  23.553  0.00  0.00     0.057 A 
ATOM      5  C   UNL d   1     -28.752  22.319  22.367  0.00  0.00    -0.020 A 
ATOM      6  C   UNL d   1     -27.933  21.992  21.289  0.00  0.00     0.057 A 
ATOM      7  C   UNL d   1     -26.564  22.144  21.392  0.00  0.00     0.147 A 
ATOM      8  F   UNL d   1     -25.770  21.833  20.344  0.00  0.00    -0.204 F 
ENDROOT
BRANCH   1   9
ATOM      9  N   UNL d   1     -24.615  22.758  22.680  0.00  0.00    -0.318 N 
ATOM     10  C   UNL d   1     -24.071  23.989  22.760  0.00  0.00     0.257 C 
ATOM     11  O   UNL d   1     -24.789  24.967  22.843  0.00  0.00    -0.267 OA
ATOM     12  H   UNL d   1     -24.043  21.974  22.696  0.00  0.00     0.169 HD
BRANCH  10  13
ATOM     13  C   UNL d   1     -22.609  24.149  22.745  0.00  0.00     0.056 A 
ATOM     14  C   UNL d   1     -21.826  24.341  21.532  0.00  0.00     0.060 A 
ATOM     15  C   UNL d   1     -20.509  24.466  21.790  0.00  0.00     0.068 A 
ATOM     16  S   UNL d   1     -20.197  24.345  23.460  0.00  0.00    -0.112 SA
ATOM     17  C   UNL d   1     -21.840  24.131  23.849  0.00  0.00     0.067 A 
BRANCH  14  18
ATOM     18  C   UNL d   1     -22.405  24.396  20.182  0.00  0.00     0.177 C 
ATOM     19  O   UNL d   1     -23.102  23.484  19.783  0.00  0.00    -0.646 OA
BRANCH  18  20
ATOM     20  O   UNL d   1     -22.160  25.457  19.387  0.00  0.00    -0.773 OA
ATOM     21  H   UNL d   1     -21.880  26.275  19.820  0.00  0.00     0.167 HD
ENDBRANCH  18  20
ENDBRANCH  14  18
ENDBRANCH  10  13
ENDBRANCH   1   9
BRANCH   5  22
ATOM     22  C   UNL d   1     -30.224  22.163  22.256  0.00  0.00    -0.023 A 
ATOM     23  C   UNL d   1     -30.993  21.964  23.399  0.00  0.00     0.049 A 
ATOM     24  C   UNL d   1     -32.367  21.819  23.288  0.00  0.00     0.079 A 
ATOM     25  C   UNL d   1     -32.973  21.878  22.040  0.00  0.00     0.037 A 
ATOM     26  C   UNL d   1     -32.208  22.070  20.904  0.00  0.00     0.004 A 
ATOM     27  C   UNL d   1     -30.839  22.215  21.006  0.00  0.00     0.012 A 
BRANCH  24  28
ATOM     28  O   UNL d   1     -33.122  21.626  24.400  0.00  0.00    -0.255 OA
BRANCH  28  29
ATOM     29  C   UNL d   1     -33.347  20.274  24.807  0.00  0.00     0.530 C 
ATOM     30  F   UNL d   1     -34.689  20.111  25.162  0.00  0.00    -0.144 F 
ATOM     31  F   UNL d   1     -33.036  19.412  23.751  0.00  0.00    -0.144 F 
ATOM     32  F   UNL d   1     -32.534  19.978  25.907  0.00  0.00    -0.144 F 
ENDBRANCH  28  29
ENDBRANCH  24  28
ENDBRANCH   5  22
TORSDOF 7
ENDMDL
