MODEL 1
REMARK VINA RESULT:     -10.3      0.000      0.000
REMARK  6 active torsions:
REMARK  status: ('A' for Active; 'I' for Inactive)
REMARK    1  A    between atoms: C_7  and  N_8 
REMARK       I    between atoms: N_8  and  C_9 
REMARK    2  A    between atoms: C_9  and  C_11 
REMARK    3  A    between atoms: C_15  and  N_16 
REMARK    4  A    between atoms: C_27  and  O_28 
REMARK    5  A    between atoms: O_28  and  C_29 
REMARK    6  A    between atoms: C_29  and  C_31 
ROOT
ATOM      1  C   UNL d   1     -24.258  24.438  23.442  0.00  0.00     0.068 A 
ATOM      2  C   UNL d   1     -25.124  24.963  24.408  0.00  0.00     0.064 A 
ATOM      3  C   UNL d   1     -26.379  24.420  24.573  0.00  0.00     0.146 A 
ATOM      4  F   UNL d   1     -27.217  24.932  25.502  0.00  0.00    -0.204 F 
ATOM      5  C   UNL d   1     -26.784  23.340  23.789  0.00  0.00     0.104 A 
ATOM      6  C   UNL d   1     -25.931  22.814  22.830  0.00  0.00     0.073 A 
ATOM      7  C   UNL d   1     -24.670  23.356  22.651  0.00  0.00     0.087 A 
ENDROOT
BRANCH   1   8
ATOM      8  C   UNL d   1     -22.918  25.022  23.257  0.00  0.00     0.260 C 
ATOM      9  N   UNL d   1     -21.836  24.400  23.767  0.00  0.00    -0.307 N 
ATOM     10  H   UNL d   1     -21.940  23.569  24.256  0.00  0.00     0.170 HD
ATOM     11  O   UNL d   1     -22.789  26.064  22.644  0.00  0.00    -0.267 OA
BRANCH   9  12
ATOM     12  C   UNL d   1     -20.567  24.954  23.592  0.00  0.00     0.133 A 
ATOM     13  C   UNL d   1     -19.895  25.732  24.473  0.00  0.00     0.076 A 
ATOM     14  C   UNL d   1     -20.390  26.159  25.832  0.00  0.00     0.074 C 
ATOM     15  N   UNL d   1     -18.714  26.057  23.928  0.00  0.00    -0.245 NA
ATOM     16  C   UNL d   1     -18.619  25.517  22.745  0.00  0.00     0.209 A 
ATOM     17  N   UNL d   1     -19.755  24.811  22.496  0.00  0.00    -0.335 N 
ATOM     18  H   UNL d   1     -19.955  24.304  21.693  0.00  0.00     0.168 HD
ENDBRANCH   9  12
ENDBRANCH   1   8
BRANCH   7  19
ATOM     19  O   UNL d   1     -23.835  22.842  21.713  0.00  0.00    -0.336 OA
BRANCH  19  20
ATOM     20  C   UNL d   1     -23.915  23.399  20.400  0.00  0.00     0.232 C 
ATOM     21  C   UNL d   1     -22.518  23.815  19.935  0.00  0.00     0.049 C 
BRANCH  20  22
ATOM     22  C   UNL d   1     -24.483  22.354  19.437  0.00  0.00     0.413 C 
ATOM     23  F   UNL d   1     -23.636  21.242  19.402  0.00  0.00    -0.168 F 
ATOM     24  F   UNL d   1     -25.754  21.961  19.872  0.00  0.00    -0.168 F 
ATOM     25  F   UNL d   1     -24.580  22.906  18.155  0.00  0.00    -0.168 F 
ENDBRANCH  20  22
ENDBRANCH  19  20
ENDBRANCH   7  19
BRANCH   5  26
ATOM     26  N   UNL d   1     -28.055  22.790  23.967  0.00  0.00    -0.178 N 
ATOM     27  C   UNL d   1     -28.459  22.025  25.005  0.00  0.00     0.351 A 
ATOM     28  N   UNL d   1     -29.754  21.730  24.807  0.00  0.00    -0.284 N 
ATOM     29  O   UNL d   1     -27.774  21.670  25.948  0.00  0.00    -0.244 OA
ATOM     30  C   UNL d   1     -30.147  22.287  23.606  0.00  0.00     0.131 A 
ATOM     31  C   UNL d   1     -30.643  20.971  25.693  0.00  0.00     0.135 C 
ATOM     32  N   UNL d   1     -29.150  22.927  23.098  0.00  0.00    -0.149 NA
ATOM     33  C   UNL d   1     -31.533  22.135  23.024  0.00  0.00     0.081 C 
ATOM     34  C   UNL d   1     -32.476  21.695  24.153  0.00  0.00     0.009 C 
ATOM     35  C   UNL d   1     -31.857  20.499  24.884  0.00  0.00     0.021 C 
ENDBRANCH   5  26
TORSDOF 6
ENDMDL
