MODEL 1
REMARK VINA RESULT:     -11.1      0.000      0.000
REMARK  6 active torsions:
REMARK  status: ('A' for Active; 'I' for Inactive)
REMARK    1  A    between atoms: C_5  and  N_6 
REMARK    2  A    between atoms: N_6  and  C_7 
REMARK    3  A    between atoms: C_10  and  C_11 
REMARK    4  A    between atoms: C_16  and  C_17 
REMARK    5  A    between atoms: C_24  and  C_25 
REMARK    6  A    between atoms: C_25  and  O_27 
ROOT
ATOM      1  C   UNL d   1     -24.732  22.510  22.094  0.00  0.00     0.050 A 
ATOM      2  C   UNL d   1     -25.582  21.493  21.673  0.00  0.00     0.146 A 
ATOM      3  N   UNL d   1     -26.781  21.358  22.198  0.00  0.00    -0.258 NA
ATOM      4  C   UNL d   1     -27.221  22.170  23.150  0.00  0.00     0.073 A 
ATOM      5  C   UNL d   1     -26.424  23.210  23.621  0.00  0.00    -0.030 A 
ATOM      6  C   UNL d   1     -26.933  24.134  24.699  0.00  0.00     0.050 C 
ATOM      7  C   UNL d   1     -25.161  23.387  23.088  0.00  0.00     0.040 A 
ENDROOT
BRANCH   1   8
ATOM      8  N   UNL d   1     -23.463  22.650  21.527  0.00  0.00    -0.354 N 
ATOM      9  H   UNL d   1     -23.242  22.175  20.711  0.00  0.00     0.166 HD
BRANCH   8  10
ATOM     10  C   UNL d   1     -22.519  23.471  22.131  0.00  0.00     0.049 A 
ATOM     11  C   UNL d   1     -22.119  23.229  23.440  0.00  0.00     0.031 A 
ATOM     12  C   UNL d   1     -21.177  24.042  24.037  0.00  0.00     0.009 A 
ATOM     13  C   UNL d   1     -20.632  25.110  23.343  0.00  0.00    -0.061 A 
ATOM     14  C   UNL d   1     -19.608  25.993  24.010  0.00  0.00     0.048 C 
ATOM     15  C   UNL d   1     -21.018  25.369  22.046  0.00  0.00     0.027 A 
ATOM     16  C   UNL d   1     -21.968  24.552  21.425  0.00  0.00     0.064 A 
BRANCH  16  17
ATOM     17  C   UNL d   1     -22.387  24.823  20.040  0.00  0.00     0.178 C 
ATOM     18  O   UNL d   1     -21.634  25.398  19.279  0.00  0.00    -0.646 OA
BRANCH  17  19
ATOM     19  O   UNL d   1     -23.606  24.434  19.616  0.00  0.00    -0.773 OA
ATOM     20  H   UNL d   1     -24.359  24.974  19.889  0.00  0.00     0.167 HD
ENDBRANCH  17  19
ENDBRANCH  16  17
ENDBRANCH   8  10
ENDBRANCH   1   8
BRANCH   4  21
ATOM     21  C   UNL d   1     -28.578  21.970  23.714  0.00  0.00     0.008 A 
ATOM     22  C   UNL d   1     -29.702  22.136  22.908  0.00  0.00     0.060 A 
ATOM     23  C   UNL d   1     -30.962  21.943  23.437  0.00  0.00     0.017 A 
ATOM     24  C   UNL d   1     -31.111  21.597  24.768  0.00  0.00     0.001 A 
ATOM     25  C   UNL d   1     -29.999  21.435  25.574  0.00  0.00     0.001 A 
ATOM     26  C   UNL d   1     -28.734  21.620  25.055  0.00  0.00     0.014 A 
BRANCH  22  27
ATOM     27  C   UNL d   1     -29.543  22.520  21.459  0.00  0.00     0.418 C 
ATOM     28  F   UNL d   1     -28.875  21.499  20.776  0.00  0.00    -0.166 F 
ATOM     29  F   UNL d   1     -30.806  22.715  20.888  0.00  0.00    -0.166 F 
ATOM     30  F   UNL d   1     -28.804  23.704  21.369  0.00  0.00    -0.166 F 
ENDBRANCH  22  27
ENDBRANCH   4  21
TORSDOF 6
ENDMDL
