MODEL 1
REMARK VINA RESULT:     -13.2      0.000      0.000
REMARK  3 active torsions:
REMARK  status: ('A' for Active; 'I' for Inactive)
REMARK    1  A    between atoms: N_2  and  C_4 
REMARK    2  A    between atoms: C_8  and  C_9 
REMARK    3  A    between atoms: C_13  and  N_14 
ROOT
ATOM      1  C   UNL d   1     -24.684  23.420  22.658  0.00  0.00     0.051 A 
ATOM      2  C   UNL d   1     -25.220  22.153  22.418  0.00  0.00     0.132 A 
ATOM      3  F   UNL d   1     -24.623  21.321  21.537  0.00  0.00    -0.205 F 
ATOM      4  C   UNL d   1     -26.358  21.749  23.087  0.00  0.00     0.075 A 
ATOM      5  C   UNL d   1     -26.976  22.606  23.991  0.00  0.00     0.066 A 
ATOM      6  C   UNL d   1     -26.449  23.870  24.227  0.00  0.00     0.075 A 
ATOM      7  C   UNL d   1     -25.308  24.278  23.565  0.00  0.00     0.132 A 
ATOM      8  F   UNL d   1     -24.796  25.508  23.794  0.00  0.00    -0.205 F 
ENDROOT
BRANCH   5   9
ATOM      9  N   UNL d   1     -28.132  22.195  24.663  0.00  0.00    -0.209 N 
ATOM     10  C   UNL d   1     -29.369  22.054  24.111  0.00  0.00     0.146 A 
ATOM     11  C   UNL d   1     -30.193  21.627  25.147  0.00  0.00     0.164 A 
ATOM     12  C   UNL d   1     -29.910  22.239  22.758  0.00  0.00     0.214 A 
ATOM     13  N   UNL d   1     -29.411  21.552  26.232  0.00  0.00    -0.125 NA
ATOM     14  C   UNL d   1     -31.624  21.366  24.901  0.00  0.00     0.216 A 
ATOM     15  N   UNL d   1     -28.211  21.891  25.911  0.00  0.00    -0.059 NA
ATOM     16  C   UNL d   1     -32.181  21.555  23.543  0.00  0.00     0.031 A 
ATOM     17  O   UNL d   1     -32.342  20.998  25.809  0.00  0.00    -0.285 OA
ATOM     18  C   UNL d   1     -31.343  21.981  22.496  0.00  0.00     0.031 A 
ATOM     19  C   UNL d   1     -33.527  21.314  23.294  0.00  0.00     0.016 A 
ATOM     20  C   UNL d   1     -31.869  22.157  21.222  0.00  0.00     0.016 A 
ATOM     21  C   UNL d   1     -33.213  21.914  20.990  0.00  0.00     0.001 A 
ATOM     22  C   UNL d   1     -34.036  21.494  22.019  0.00  0.00     0.001 A 
ATOM     23  O   UNL d   1     -29.182  22.606  21.855  0.00  0.00    -0.285 OA
ENDBRANCH   5   9
BRANCH   1  24
ATOM     24  C   UNL d   1     -23.459  23.855  21.945  0.00  0.00    -0.018 A 
ATOM     25  C   UNL d   1     -23.499  24.101  20.573  0.00  0.00     0.012 A 
ATOM     26  C   UNL d   1     -22.356  24.507  19.911  0.00  0.00     0.003 A 
ATOM     27  C   UNL d   1     -21.173  24.669  20.603  0.00  0.00     0.029 A 
ATOM     28  C   UNL d   1     -21.123  24.425  21.970  0.00  0.00     0.030 A 
ATOM     29  C   UNL d   1     -22.266  24.024  22.644  0.00  0.00     0.041 A 
BRANCH  28  30
ATOM     30  N   UNL d   1     -19.923  24.590  22.667  0.00  0.00    -0.390 N 
ATOM     31  C   UNL d   1     -18.657  24.675  21.934  0.00  0.00     0.149 C 
ATOM     32  C   UNL d   1     -19.931  24.679  24.129  0.00  0.00     0.149 C 
ENDBRANCH  28  30
ENDBRANCH   1  24
TORSDOF 3
ENDMDL
