MODEL 1
REMARK VINA RESULT:     -11.4      0.000      0.000
REMARK  7 active torsions:
REMARK  status: ('A' for Active; 'I' for Inactive)
REMARK    1  A    between atoms: C_2  and  O_3 
REMARK    2  A    between atoms: C_2  and  C_37 
REMARK    3  A    between atoms: O_3  and  C_4 
REMARK    4  A    between atoms: C_6  and  N_7 
REMARK    5  A    between atoms: C_20  and  C_21 
REMARK       I    between atoms: C_21  and  N_23 
REMARK    6  A    between atoms: N_23  and  C_24 
REMARK    7  A    between atoms: C_27  and  S_28 
ROOT
ATOM      1  C   UNL d   1     -24.654  23.331  22.602  0.00  0.00     0.087 A 
ATOM      2  C   UNL d   1     -25.919  22.803  22.791  0.00  0.00     0.073 A 
ATOM      3  C   UNL d   1     -26.758  23.337  23.760  0.00  0.00     0.104 A 
ATOM      4  C   UNL d   1     -26.330  24.406  24.547  0.00  0.00     0.146 A 
ATOM      5  F   UNL d   1     -27.151  24.920  25.488  0.00  0.00    -0.204 F 
ATOM      6  C   UNL d   1     -25.073  24.939  24.367  0.00  0.00     0.064 A 
ATOM      7  C   UNL d   1     -24.220  24.403  23.396  0.00  0.00     0.068 A 
ENDROOT
BRANCH   7   8
ATOM      8  C   UNL d   1     -22.875  24.971  23.201  0.00  0.00     0.259 C 
ATOM      9  O   UNL d   1     -22.745  26.049  22.652  0.00  0.00    -0.267 OA
ATOM     10  N   UNL d   1     -21.790  24.297  23.629  0.00  0.00    -0.321 N 
ATOM     11  H   UNL d   1     -21.887  23.403  23.991  0.00  0.00     0.169 HD
BRANCH  10  12
ATOM     12  C   UNL d   1     -20.524  24.887  23.550  0.00  0.00     0.057 A 
ATOM     13  C   UNL d   1     -20.088  25.738  24.557  0.00  0.00     0.062 A 
ATOM     14  C   UNL d   1     -18.834  26.315  24.477  0.00  0.00     0.053 A 
ATOM     15 CL   UNL d   1     -21.111  26.068  25.921  0.00  0.00    -0.082 Cl
ATOM     16  C   UNL d   1     -18.018  26.053  23.392  0.00  0.00     0.101 A 
ATOM     17  C   UNL d   1     -18.453  25.210  22.385  0.00  0.00     0.029 A 
ATOM     18  C   UNL d   1     -19.702  24.627  22.460  0.00  0.00     0.033 A 
BRANCH  16  19
ATOM     19  S   UNL d   1     -16.380  26.815  23.288  0.00  0.00     0.311 SA
ATOM     20  F   UNL d   1     -14.922  27.493  23.197  0.00  0.00    -0.093 F 
ATOM     21  F   UNL d   1     -16.739  27.757  24.544  0.00  0.00    -0.093 F 
ATOM     22  F   UNL d   1     -16.022  25.874  22.032  0.00  0.00    -0.093 F 
ATOM     23  F   UNL d   1     -15.798  25.699  24.292  0.00  0.00    -0.093 F 
ATOM     24  F   UNL d   1     -16.963  27.931  22.286  0.00  0.00    -0.093 F 
ENDBRANCH  16  19
ENDBRANCH  10  12
ENDBRANCH   7   8
BRANCH   1  25
ATOM     25  O   UNL d   1     -23.833  22.810  21.655  0.00  0.00    -0.336 OA
BRANCH  25  26
ATOM     26  C   UNL d   1     -23.902  23.387  20.350  0.00  0.00     0.232 C 
ATOM     27  C   UNL d   1     -22.498  23.788  19.895  0.00  0.00     0.049 C 
BRANCH  26  28
ATOM     28  C   UNL d   1     -24.483  22.365  19.370  0.00  0.00     0.413 C 
ATOM     29  F   UNL d   1     -25.751  21.967  19.810  0.00  0.00    -0.168 F 
ATOM     30  F   UNL d   1     -24.589  22.942  18.101  0.00  0.00    -0.168 F 
ATOM     31  F   UNL d   1     -23.640  21.250  19.305  0.00  0.00    -0.168 F 
ENDBRANCH  26  28
ENDBRANCH  25  26
ENDBRANCH   1  25
BRANCH   3  32
ATOM     32  N   UNL d   1     -28.034  22.800  23.949  0.00  0.00    -0.178 N 
ATOM     33  C   UNL d   1     -28.435  22.036  24.987  0.00  0.00     0.351 A 
ATOM     34  N   UNL d   1     -29.737  21.761  24.802  0.00  0.00    -0.284 N 
ATOM     35  O   UNL d   1     -27.746  21.669  25.922  0.00  0.00    -0.244 OA
ATOM     36  C   UNL d   1     -30.134  22.323  23.606  0.00  0.00     0.131 A 
ATOM     37  C   UNL d   1     -30.629  21.019  25.700  0.00  0.00     0.135 C 
ATOM     38  N   UNL d   1     -29.133  22.952  23.091  0.00  0.00    -0.149 NA
ATOM     39  C   UNL d   1     -31.526  22.185  23.035  0.00  0.00     0.081 C 
ATOM     40  C   UNL d   1     -32.466  21.760  24.172  0.00  0.00     0.009 C 
ATOM     41  C   UNL d   1     -31.855  20.560  24.903  0.00  0.00     0.021 C 
ENDBRANCH   3  32
TORSDOF 7
ENDMDL
