MODEL 1
REMARK VINA RESULT:     -12.5      0.000      0.000
REMARK  7 active torsions:
REMARK  status: ('A' for Active; 'I' for Inactive)
REMARK    1  A    between atoms: C_5  and  C_6 
REMARK    2  A    between atoms: C_6  and  O_8 
REMARK    3  A    between atoms: C_10  and  C_11 
REMARK    4  A    between atoms: C_16  and  C_17 
REMARK    5  A    between atoms: C_21  and  C_22 
REMARK    6  A    between atoms: C_22  and  N_23 
REMARK    7  A    between atoms: N_23  and  C_24 
ROOT
ATOM      1  C   UNL d   1     -26.753  22.847  23.033  0.00  0.00     0.058 A 
ATOM      2  C   UNL d   1     -26.216  23.960  23.681  0.00  0.00     0.170 A 
ATOM      3  F   UNL d   1     -26.979  24.681  24.531  0.00  0.00    -0.202 F 
ATOM      4  C   UNL d   1     -24.900  24.320  23.460  0.00  0.00     0.170 A 
ATOM      5  F   UNL d   1     -24.378  25.394  24.091  0.00  0.00    -0.202 F 
ATOM      6  C   UNL d   1     -24.113  23.578  22.578  0.00  0.00     0.058 A 
ATOM      7  C   UNL d   1     -24.652  22.468  21.925  0.00  0.00     0.170 A 
ATOM      8  F   UNL d   1     -23.890  21.750  21.072  0.00  0.00    -0.202 F 
ATOM      9  C   UNL d   1     -25.966  22.104  22.151  0.00  0.00     0.170 A 
ATOM     10  F   UNL d   1     -26.488  21.030  21.519  0.00  0.00    -0.202 F 
ENDROOT
BRANCH   1  11
ATOM     11  C   UNL d   1     -28.163  22.456  23.276  0.00  0.00    -0.016 A 
ATOM     12  C   UNL d   1     -28.534  21.933  24.514  0.00  0.00     0.033 A 
ATOM     13  C   UNL d   1     -29.852  21.560  24.749  0.00  0.00     0.069 A 
ATOM     14  C   UNL d   1     -30.816  21.724  23.730  0.00  0.00     0.102 A 
ATOM     15  N   UNL d   1     -32.138  21.468  23.655  0.00  0.00    -0.233 NA
ATOM     16  C   UNL d   1     -30.428  22.253  22.487  0.00  0.00     0.064 A 
ATOM     17  C   UNL d   1     -32.585  21.794  22.476  0.00  0.00     0.101 A 
ATOM     18  C   UNL d   1     -34.014  21.649  22.024  0.00  0.00     0.091 C 
ATOM     19  N   UNL d   1     -31.573  22.285  21.713  0.00  0.00    -0.343 N 
ATOM     20  H   UNL d   1     -31.642  22.598  20.798  0.00  0.00     0.167 HD
ATOM     21  C   UNL d   1     -29.109  22.616  22.267  0.00  0.00     0.044 A 
BRANCH  13  22
ATOM     22  C   UNL d   1     -30.243  21.002  26.055  0.00  0.00     0.178 C 
ATOM     23  O   UNL d   1     -30.185  21.694  27.053  0.00  0.00    -0.646 OA
BRANCH  22  24
ATOM     24  O   UNL d   1     -30.666  19.726  26.145  0.00  0.00    -0.773 OA
ATOM     25  H   UNL d   1     -31.234  19.400  25.433  0.00  0.00     0.167 HD
ENDBRANCH  22  24
ENDBRANCH  13  22
ENDBRANCH   1  11
BRANCH   6  26
ATOM     26  C   UNL d   1     -22.703  23.968  22.334  0.00  0.00    -0.019 A 
ATOM     27  C   UNL d   1     -21.823  24.116  23.406  0.00  0.00     0.021 A 
ATOM     28  C   UNL d   1     -20.512  24.476  23.173  0.00  0.00    -0.030 A 
ATOM     29  C   UNL d   1     -20.071  24.698  21.880  0.00  0.00     0.009 A 
ATOM     30  C   UNL d   1     -20.941  24.557  20.814  0.00  0.00     0.001 A 
ATOM     31  C   UNL d   1     -22.253  24.193  21.034  0.00  0.00     0.012 A 
BRANCH  28  32
ATOM     32  C   UNL d   1     -19.558  24.632  24.330  0.00  0.00     0.308 C 
BRANCH  32  33
ATOM     33  N   UNL d   1     -19.611  26.013  24.824  0.00  0.00     0.091 N 
ATOM     34  H   UNL d   1     -19.674  26.669  24.060  0.00  0.00     0.316 HD
BRANCH  33  35
ATOM     35  C   UNL d   1     -20.727  26.193  25.764  0.00  0.00     0.212 C 
ATOM     36  C   UNL d   1     -20.175  26.461  27.165  0.00  0.00     0.042 C 
ATOM     37  C   UNL d   1     -21.583  27.381  25.317  0.00  0.00     0.042 C 
ENDBRANCH  33  35
ENDBRANCH  32  33
ENDBRANCH  28  32
ENDBRANCH   6  26
TORSDOF 7
ENDMDL
