MODEL 1
REMARK VINA RESULT:     -11.5      0.000      0.000
REMARK  4 active torsions:
REMARK  status: ('A' for Active; 'I' for Inactive)
REMARK    1  A    between atoms: C_2  and  O_3 
REMARK    2  A    between atoms: C_2  and  C_4 
REMARK    3  A    between atoms: C_10  and  C_11 
REMARK    4  A    between atoms: C_14  and  C_15 
ROOT
ATOM      1  C   UNL d   1     -32.506  21.691  22.674  0.00  0.00     0.065 A 
ATOM      2  C   UNL d   1     -33.516  21.253  23.531  0.00  0.00     0.021 A 
ATOM      3  C   UNL d   1     -33.229  20.922  24.842  0.00  0.00     0.002 A 
ATOM      4  C   UNL d   1     -31.941  21.022  25.326  0.00  0.00     0.014 A 
ATOM      5  C   UNL d   1     -30.913  21.463  24.489  0.00  0.00    -0.006 A 
ATOM      6  C   UNL d   1     -29.479  21.678  24.678  0.00  0.00     0.044 A 
ATOM      7  C   UNL d   1     -28.989  22.121  23.493  0.00  0.00     0.043 A 
ATOM      8  N   UNL d   1     -30.011  22.199  22.574  0.00  0.00    -0.354 N 
ATOM      9  H   UNL d   1     -29.912  22.489  21.654  0.00  0.00     0.166 HD
ATOM     10  C   UNL d   1     -31.190  21.804  23.153  0.00  0.00     0.060 A 
ENDROOT
BRANCH   7  11
ATOM     11  C   UNL d   1     -27.577  22.467  23.229  0.00  0.00    -0.009 A 
ATOM     12  C   UNL d   1     -26.941  23.445  23.997  0.00  0.00     0.014 A 
ATOM     13  C   UNL d   1     -25.625  23.766  23.752  0.00  0.00     0.013 A 
ATOM     14  C   UNL d   1     -24.926  23.115  22.735  0.00  0.00    -0.026 A 
ATOM     15  C   UNL d   1     -25.560  22.137  21.967  0.00  0.00     0.013 A 
ATOM     16  C   UNL d   1     -26.874  21.810  22.215  0.00  0.00     0.014 A 
BRANCH  14  17
ATOM     17  C   UNL d   1     -23.509  23.461  22.471  0.00  0.00    -0.026 A 
ATOM     18  C   UNL d   1     -23.126  23.935  21.217  0.00  0.00     0.012 A 
ATOM     19  C   UNL d   1     -21.805  24.257  20.977  0.00  0.00     0.001 A 
ATOM     20  C   UNL d   1     -20.863  24.109  21.979  0.00  0.00     0.000 A 
ATOM     21  C   UNL d   1     -21.237  23.640  23.224  0.00  0.00     0.001 A 
ATOM     22  C   UNL d   1     -22.555  23.320  23.477  0.00  0.00     0.012 A 
ENDBRANCH  14  17
ENDBRANCH   7  11
BRANCH   1  23
ATOM     23  C   UNL d   1     -32.819  22.037  21.276  0.00  0.00     0.178 C 
ATOM     24  O   UNL d   1     -31.939  22.033  20.437  0.00  0.00    -0.646 OA
BRANCH  23  25
ATOM     25  O   UNL d   1     -34.080  22.359  20.927  0.00  0.00    -0.773 OA
ATOM     26  H   UNL d   1     -34.403  22.018  20.081  0.00  0.00     0.167 HD
ENDBRANCH  23  25
ENDBRANCH   1  23
TORSDOF 4
ENDMDL
