MODEL 1
REMARK VINA RESULT:      -9.9      0.000      0.000
REMARK  4 active torsions:
REMARK  status: ('A' for Active; 'I' for Inactive)
REMARK    1  A    between atoms: C_2  and  C_3 
REMARK    2  A    between atoms: C_5  and  C_6 
REMARK       I    between atoms: C_6  and  N_8 
REMARK    3  A    between atoms: N_8  and  C_9 
REMARK    4  A    between atoms: N_17  and  C_18 
ROOT
ATOM      1  C   UNL d   1     -27.064  22.319  22.250  0.00  0.00     0.121 C 
ATOM      2  C   UNL d   1     -26.406  21.225  21.400  0.00  0.00     0.030 C 
ATOM      3  C   UNL d   1     -25.379  21.860  20.457  0.00  0.00     0.008 C 
ATOM      4  C   UNL d   1     -24.176  22.356  21.270  0.00  0.00     0.060 C 
ATOM      5  C   UNL d   1     -24.690  23.184  22.421  0.00  0.00     0.046 A 
ATOM      6  C   UNL d   1     -25.976  23.169  22.855  0.00  0.00     0.008 A 
ATOM      7  C   UNL d   1     -26.079  24.058  23.924  0.00  0.00     0.150 A 
ATOM      8  N   UNL d   1     -24.897  24.589  24.128  0.00  0.00    -0.179 NA
ATOM      9  N   UNL d   1     -24.005  24.050  23.190  0.00  0.00    -0.235 N 
ENDROOT
BRANCH   1  10
ATOM     10  N   UNL d   1     -27.860  21.703  23.314  0.00  0.00    -0.347 N 
ATOM     11  C   UNL d   1     -29.105  22.152  23.571  0.00  0.00     0.273 C 
ATOM     12  O   UNL d   1     -29.566  23.068  22.918  0.00  0.00    -0.266 OA
ATOM     13  H   UNL d   1     -27.493  20.971  23.832  0.00  0.00     0.163 HD
BRANCH  11  14
ATOM     14  C   UNL d   1     -29.911  21.530  24.648  0.00  0.00     0.154 A 
ATOM     15  C   UNL d   1     -31.014  20.646  24.490  0.00  0.00     0.074 A 
ATOM     16  C   UNL d   1     -31.394  20.369  25.758  0.00  0.00     0.081 A 
ATOM     17  O   UNL d   1     -30.567  21.047  26.565  0.00  0.00    -0.217 OA
ATOM     18  N   UNL d   1     -29.749  21.681  25.940  0.00  0.00    -0.123 NA
BRANCH  16  19
ATOM     19  C   UNL d   1     -32.529  19.471  26.182  0.00  0.00     0.063 C 
ATOM     20  C   UNL d   1     -31.978  18.090  26.544  0.00  0.00     0.012 C 
ENDBRANCH  16  19
ENDBRANCH  11  14
ENDBRANCH   1  10
BRANCH   9  21
ATOM     21  C   UNL d   1     -22.641  24.358  23.074  0.00  0.00     0.097 A 
ATOM     22  C   UNL d   1     -22.190  25.132  22.011  0.00  0.00     0.148 A 
ATOM     23  C   UNL d   1     -20.845  25.435  21.900  0.00  0.00     0.087 A 
ATOM     24  F   UNL d   1     -23.064  25.587  21.087  0.00  0.00    -0.203 F 
ATOM     25  C   UNL d   1     -19.949  24.967  22.846  0.00  0.00     0.119 A 
ATOM     26  C   UNL d   1     -20.397  24.197  23.905  0.00  0.00     0.045 A 
ATOM     27  F   UNL d   1     -18.636  25.263  22.736  0.00  0.00    -0.206 F 
ATOM     28  C   UNL d   1     -21.741  23.896  24.024  0.00  0.00     0.038 A 
ENDBRANCH   9  21
TORSDOF 4
ENDMDL
