MODEL 1
REMARK VINA RESULT:      -8.9      0.000      0.000
REMARK  6 active torsions:
REMARK  status: ('A' for Active; 'I' for Inactive)
REMARK    1  A    between atoms: C_2  and  C_3 
REMARK    2  A    between atoms: C_3  and  C_4 
REMARK    3  A    between atoms: C_4  and  N_5 
REMARK       I    between atoms: N_5  and  C_6 
REMARK    4  A    between atoms: C_6  and  C_8 
REMARK    5  A    between atoms: C_9  and  N_10 
REMARK    6  A    between atoms: N_10  and  C_11 
ROOT
ATOM      1  C   UNL d   1     -30.931  21.706  24.279  0.00  0.00     0.112 A 
ATOM      2  C   UNL d   1     -29.634  22.178  24.436  0.00  0.00     0.090 A 
ATOM      3  S   UNL d   1     -28.962  21.499  25.864  0.00  0.00    -0.103 SA
ATOM      4  C   UNL d   1     -30.429  20.522  26.315  0.00  0.00     0.165 A 
ATOM      5  C   UNL d   1     -31.429  20.824  25.226  0.00  0.00     0.177 A 
ATOM      6  O   UNL d   1     -32.546  20.348  25.183  0.00  0.00    -0.291 OA
ENDROOT
BRANCH   2   7
ATOM      7  N   UNL d   1     -28.998  23.041  23.594  0.00  0.00    -0.350 N 
ATOM      8  H   UNL d   1     -29.353  23.933  23.454  0.00  0.00     0.166 HD
BRANCH   7   9
ATOM      9  C   UNL d   1     -27.832  22.641  22.932  0.00  0.00     0.033 A 
ATOM     10  C   UNL d   1     -26.595  23.099  23.365  0.00  0.00     0.036 A 
ATOM     11  C   UNL d   1     -25.445  22.702  22.709  0.00  0.00    -0.054 A 
ATOM     12  C   UNL d   1     -25.526  21.852  21.622  0.00  0.00    -0.056 A 
ATOM     13  C   UNL d   1     -24.102  23.198  23.178  0.00  0.00     0.049 C 
ATOM     14  C   UNL d   1     -26.757  21.394  21.189  0.00  0.00     0.009 A 
ATOM     15  C   UNL d   1     -24.270  21.421  20.909  0.00  0.00     0.049 C 
ATOM     16  C   UNL d   1     -27.910  21.783  21.842  0.00  0.00     0.030 A 
ENDBRANCH   7   9
ENDBRANCH   2   7
BRANCH   1  17
ATOM     17  C   UNL d   1     -31.750  22.124  23.138  0.00  0.00     0.258 C 
ATOM     18  N   UNL d   1     -33.079  22.289  23.287  0.00  0.00    -0.357 N 
ATOM     19  H   UNL d   1     -33.485  22.187  24.162  0.00  0.00     0.162 HD
ATOM     20  O   UNL d   1     -31.230  22.318  22.055  0.00  0.00    -0.267 OA
BRANCH  18  21
ATOM     21  C   UNL d   1     -33.910  22.624  22.129  0.00  0.00     0.123 C 
BRANCH  21  22
ATOM     22  C   UNL d   1     -33.951  21.434  21.168  0.00  0.00     0.019 C 
BRANCH  22  23
ATOM     23  C   UNL d   1     -34.264  20.157  21.951  0.00  0.00    -0.003 C 
ATOM     24  C   UNL d   1     -33.860  18.938  21.120  0.00  0.00     0.005 C 
ENDBRANCH  22  23
ENDBRANCH  21  22
ENDBRANCH  18  21
ENDBRANCH   1  17
TORSDOF 6
ENDMDL
