MODEL 1
REMARK VINA RESULT:     -10.1      0.000      0.000
REMARK  4 active torsions:
REMARK  status: ('A' for Active; 'I' for Inactive)
REMARK    1  A    between atoms: C_6  and  C_7 
REMARK    2  A    between atoms: C_7  and  O_9 
REMARK    3  A    between atoms: C_10  and  O_11 
REMARK    4  A    between atoms: C_12  and  C_13 
ROOT
ATOM      1  C   UNL d   1     -34.317  22.242  21.163  0.00  0.00     0.048 C 
ATOM      2  C   UNL d   1     -33.221  22.006  22.170  0.00  0.00    -0.060 A 
ATOM      3  C   UNL d   1     -33.548  21.557  23.447  0.00  0.00     0.007 A 
ATOM      4  C   UNL d   1     -32.578  21.336  24.379  0.00  0.00     0.015 A 
ATOM      5  C   UNL d   1     -31.237  21.561  24.048  0.00  0.00     0.012 A 
ATOM      6  C   UNL d   1     -30.163  21.335  25.018  0.00  0.00     0.085 A 
ATOM      7  C   UNL d   1     -28.858  21.587  24.596  0.00  0.00     0.113 A 
ATOM      8  C   UNL d   1     -28.636  22.039  23.278  0.00  0.00     0.102 A 
ATOM      9  N   UNL d   1     -29.620  22.234  22.429  0.00  0.00    -0.245 NA
ATOM     10  C   UNL d   1     -30.897  22.018  22.751  0.00  0.00     0.069 A 
ATOM     11  C   UNL d   1     -31.927  22.235  21.816  0.00  0.00     0.039 A 
ENDROOT
BRANCH   8  12
ATOM     12  C   UNL d   1     -27.247  22.306  22.836  0.00  0.00    -0.004 A 
ATOM     13  C   UNL d   1     -26.717  21.620  21.744  0.00  0.00     0.015 A 
ATOM     14  C   UNL d   1     -25.422  21.871  21.337  0.00  0.00     0.024 A 
ATOM     15  C   UNL d   1     -24.650  22.803  22.010  0.00  0.00     0.034 A 
ATOM     16  C   UNL d   1     -25.172  23.486  23.096  0.00  0.00     0.024 A 
ATOM     17 CL   UNL d   1     -23.023  23.114  21.493  0.00  0.00    -0.084 Cl
ATOM     18  C   UNL d   1     -26.467  23.246  23.508  0.00  0.00     0.015 A 
ENDBRANCH   8  12
BRANCH   7  19
ATOM     19  O   UNL d   1     -27.815  21.398  25.440  0.00  0.00    -0.357 OA
ATOM     20  H   UNL d   1     -27.971  21.724  26.337  0.00  0.00     0.217 HD
ENDBRANCH   7  19
BRANCH   6  21
ATOM     21  C   UNL d   1     -30.450  20.862  26.384  0.00  0.00     0.180 C 
ATOM     22  O   UNL d   1     -30.195  21.570  27.338  0.00  0.00    -0.646 OA
BRANCH  21  23
ATOM     23  O   UNL d   1     -30.995  19.644  26.574  0.00  0.00    -0.773 OA
ATOM     24  H   UNL d   1     -31.105  19.350  27.489  0.00  0.00     0.167 HD
ENDBRANCH  21  23
ENDBRANCH   6  21
TORSDOF 4
ENDMDL
