MODEL 1
REMARK VINA RESULT:     -10.2      0.000      0.000
REMARK  7 active torsions:
REMARK  status: ('A' for Active; 'I' for Inactive)
REMARK    1  A    between atoms: C_2  and  C_3 
REMARK    2  A    between atoms: C_3  and  C_4 
REMARK    3  A    between atoms: C_4  and  O_6 
REMARK    4  A    between atoms: O_6  and  C_7 
REMARK    5  A    between atoms: C_9  and  N_10 
REMARK    6  A    between atoms: C_23  and  C_24 
REMARK       I    between atoms: C_24  and  N_26 
REMARK    7  A    between atoms: N_26  and  C_27 
ROOT
ATOM      1  C   UNL d   1     -26.030  23.284  23.392  0.00  0.00     0.087 A 
ATOM      2  C   UNL d   1     -27.406  23.129  23.417  0.00  0.00     0.073 A 
ATOM      3  C   UNL d   1     -28.024  22.258  22.531  0.00  0.00     0.104 A 
ATOM      4  C   UNL d   1     -27.263  21.535  21.611  0.00  0.00     0.146 A 
ATOM      5  F   UNL d   1     -27.871  20.685  20.756  0.00  0.00    -0.204 F 
ATOM      6  C   UNL d   1     -25.895  21.682  21.578  0.00  0.00     0.064 A 
ATOM      7  C   UNL d   1     -25.264  22.557  22.469  0.00  0.00     0.068 A 
ENDROOT
BRANCH   7   8
ATOM      8  C   UNL d   1     -23.800  22.717  22.437  0.00  0.00     0.260 C 
ATOM      9  O   UNL d   1     -23.079  21.750  22.584  0.00  0.00    -0.267 OA
ATOM     10  N   UNL d   1     -23.260  23.936  22.241  0.00  0.00    -0.307 N 
ATOM     11  H   UNL d   1     -23.835  24.708  22.123  0.00  0.00     0.170 HD
BRANCH  10  12
ATOM     12  C   UNL d   1     -21.879  24.088  22.210  0.00  0.00     0.139 A 
ATOM     13  C   UNL d   1     -21.214  24.273  20.999  0.00  0.00     0.002 A 
ATOM     14  C   UNL d   1     -19.840  24.425  21.022  0.00  0.00     0.128 A 
ATOM     15  C   UNL d   1     -21.974  24.313  19.698  0.00  0.00     0.054 C 
ATOM     16  N   UNL d   1     -19.204  24.379  22.183  0.00  0.00    -0.253 NA
ATOM     17  C   UNL d   1     -19.863  24.197  23.310  0.00  0.00     0.234 A 
ATOM     18  N   UNL d   1     -21.171  24.054  23.335  0.00  0.00    -0.224 NA
ENDBRANCH  10  12
ENDBRANCH   7   8
BRANCH   1  19
ATOM     19  O   UNL d   1     -25.426  24.135  24.259  0.00  0.00    -0.345 OA
BRANCH  19  20
ATOM     20  C   UNL d   1     -25.756  25.520  24.146  0.00  0.00     0.124 C 
ATOM     21  C   UNL d   1     -26.244  26.041  25.500  0.00  0.00     0.040 C 
BRANCH  20  22
ATOM     22  C   UNL d   1     -24.517  26.306  23.714  0.00  0.00     0.032 C 
BRANCH  22  23
ATOM     23  C   UNL d   1     -23.482  26.286  24.841  0.00  0.00    -0.002 C 
ATOM     24  C   UNL d   1     -22.299  27.181  24.463  0.00  0.00     0.005 C 
ENDBRANCH  22  23
ENDBRANCH  20  22
ENDBRANCH  19  20
ENDBRANCH   1  19
BRANCH   3  25
ATOM     25  N   UNL d   1     -29.412  22.105  22.559  0.00  0.00    -0.178 N 
ATOM     26  C   UNL d   1     -30.160  21.784  23.636  0.00  0.00     0.351 A 
ATOM     27  N   UNL d   1     -31.444  21.765  23.242  0.00  0.00    -0.284 N 
ATOM     28  O   UNL d   1     -29.747  21.554  24.759  0.00  0.00    -0.244 OA
ATOM     29  C   UNL d   1     -31.487  22.044  21.891  0.00  0.00     0.131 A 
ATOM     30  C   UNL d   1     -32.629  21.524  24.072  0.00  0.00     0.135 C 
ATOM     31  N   UNL d   1     -30.287  22.263  21.473  0.00  0.00    -0.149 NA
ATOM     32  C   UNL d   1     -32.760  22.063  21.079  0.00  0.00     0.081 C 
ATOM     33  C   UNL d   1     -33.942  22.194  22.050  0.00  0.00     0.009 C 
ATOM     34  C   UNL d   1     -33.799  21.143  23.157  0.00  0.00     0.021 C 
ENDBRANCH   3  25
TORSDOF 7
ENDMDL
