MODEL 1
REMARK VINA RESULT:     -10.1      0.000      0.000
REMARK  6 active torsions:
REMARK  status: ('A' for Active; 'I' for Inactive)
REMARK    1  A    between atoms: C_2  and  C_4 
REMARK    2  A    between atoms: N_6  and  C_7 
REMARK    3  A    between atoms: C_20  and  N_21 
REMARK    4  A    between atoms: C_23  and  C_24 
REMARK    5  A    between atoms: C_24  and  O_25 
REMARK    6  A    between atoms: N_26  and  C_27 
ROOT
ATOM      1  C   UNL d   1     -25.745  24.111  23.691  0.00  0.00    -0.004 A 
ATOM      2  C   UNL d   1     -24.453  24.280  23.310  0.00  0.00     0.113 A 
ATOM      3  N   UNL d   1     -23.917  23.617  22.246  0.00  0.00    -0.283 N 
ATOM      4  C   UNL d   1     -24.631  22.752  21.500  0.00  0.00     0.263 A 
ATOM      5  O   UNL d   1     -24.111  22.182  20.558  0.00  0.00    -0.267 OA
ATOM      6  C   UNL d   1     -26.037  22.501  21.829  0.00  0.00     0.044 A 
ATOM      7  C   UNL d   1     -26.820  21.615  21.087  0.00  0.00     0.020 A 
ATOM      8  C   UNL d   1     -28.126  21.413  21.431  0.00  0.00     0.033 A 
ATOM      9  C   UNL d   1     -28.689  22.083  22.518  0.00  0.00     0.064 A 
ATOM     10  C   UNL d   1     -27.934  22.972  23.267  0.00  0.00     0.045 A 
ATOM     11  C   UNL d   1     -26.600  23.184  22.931  0.00  0.00    -0.006 A 
ENDROOT
BRANCH   9  12
ATOM     12  N   UNL d   1     -30.028  21.860  22.851  0.00  0.00    -0.181 N 
ATOM     13  C   UNL d   1     -31.093  22.026  22.038  0.00  0.00     0.351 A 
ATOM     14  N   UNL d   1     -32.194  21.708  22.747  0.00  0.00    -0.283 N 
ATOM     15  O   UNL d   1     -31.063  22.397  20.879  0.00  0.00    -0.244 OA
ATOM     16  C   UNL d   1     -31.803  21.334  24.009  0.00  0.00     0.154 A 
ATOM     17  N   UNL d   1     -30.513  21.419  24.089  0.00  0.00    -0.147 NA
BRANCH  14  18
ATOM     18  C   UNL d   1     -33.573  21.748  22.253  0.00  0.00     0.131 C 
ATOM     19  C   UNL d   1     -33.945  20.385  21.666  0.00  0.00     0.027 C 
ENDBRANCH  14  18
BRANCH  16  20
ATOM     20  C   UNL d   1     -32.723  20.897  25.119  0.00  0.00     0.244 C 
BRANCH  20  21
ATOM     21  O   UNL d   1     -32.107  21.163  26.381  0.00  0.00    -0.393 OA
ATOM     22  H   UNL d   1     -31.559  20.438  26.712  0.00  0.00     0.209 HD
ENDBRANCH  20  21
ENDBRANCH  16  20
ENDBRANCH   9  12
BRANCH   1  23
ATOM     23  C   UNL d   1     -26.286  24.849  24.849  0.00  0.00    -0.059 C 
ATOM     24  C   UNL d   1     -26.117  26.162  24.937  0.00  0.00     0.019 C 
ATOM     25  C   UNL d   1     -27.031  24.110  25.932  0.00  0.00     0.048 C 
ENDBRANCH   1  23
BRANCH   3  26
ATOM     26  C   UNL d   1     -22.575  23.844  21.916  0.00  0.00     0.102 A 
ATOM     27  C   UNL d   1     -21.564  23.336  22.722  0.00  0.00     0.064 A 
ATOM     28  C   UNL d   1     -20.240  23.562  22.393  0.00  0.00     0.026 A 
ATOM     29 CL   UNL d   1     -21.963  22.420  24.141  0.00  0.00    -0.082 Cl
ATOM     30  C   UNL d   1     -19.921  24.292  21.263  0.00  0.00     0.005 A 
ATOM     31  C   UNL d   1     -20.924  24.799  20.458  0.00  0.00     0.045 A 
ATOM     32  C   UNL d   1     -22.251  24.573  20.776  0.00  0.00     0.145 A 
ATOM     33  F   UNL d   1     -23.230  25.064  19.986  0.00  0.00    -0.204 F 
ENDBRANCH   3  26
TORSDOF 6
ENDMDL
