MODEL 1
REMARK VINA RESULT:      -9.2      0.000      0.000
REMARK  7 active torsions:
REMARK  status: ('A' for Active; 'I' for Inactive)
REMARK    1  A    between atoms: O_2  and  C_3 
REMARK    2  A    between atoms: C_3  and  C_5 
REMARK    3  A    between atoms: C_8  and  C_9 
REMARK    4  A    between atoms: C_9  and  C_10 
REMARK    5  A    between atoms: C_10  and  C_11 
REMARK    6  A    between atoms: CA_12  and  C_13 
REMARK    7  A    between atoms: C_13  and  OXT_15 
ROOT
ATOM      1  C   UNL d   1     -31.163  21.374  24.648  0.00  0.00     0.044 A 
ATOM      2  CA  UNL d   1     -32.295  20.672  24.380  0.00  0.00     0.122 A 
ATOM      3  N   UNL d   1     -32.571  19.532  25.104  0.00  0.00    -0.302 N 
ATOM      4  H   UNL d   1     -33.379  19.030  24.912  0.00  0.00     0.171 HD
ATOM      5  C   UNL d   1     -31.741  19.102  26.068  0.00  0.00     0.327 A 
ATOM      6  O   UNL d   1     -32.021  18.090  26.682  0.00  0.00    -0.247 OA
ATOM      7  N   UNL d   1     -30.609  19.759  26.372  0.00  0.00    -0.275 N 
ATOM      8  H   UNL d   1     -30.030  19.423  27.074  0.00  0.00     0.173 HD
ATOM      9  C   UNL d   1     -30.269  20.881  25.703  0.00  0.00     0.258 A 
ATOM     10  O   UNL d   1     -29.242  21.476  25.972  0.00  0.00    -0.267 OA
ENDROOT
BRANCH   1  11
ATOM     11  C   UNL d   1     -30.830  22.626  23.877  0.00  0.00     0.051 C 
BRANCH  11  12
ATOM     12  C   UNL d   1     -30.491  22.258  22.432  0.00  0.00     0.043 C 
BRANCH  12  13
ATOM     13  C   UNL d   1     -28.995  22.172  22.273  0.00  0.00    -0.058 A 
ATOM     14  C   UNL d   1     -28.454  21.511  21.185  0.00  0.00     0.008 A 
ATOM     15  C   UNL d   1     -27.085  21.425  21.037  0.00  0.00     0.018 A 
ATOM     16  C   UNL d   1     -26.245  22.015  21.983  0.00  0.00     0.039 A 
ATOM     17  C   UNL d   1     -26.798  22.680  23.080  0.00  0.00     0.018 A 
ATOM     18  C   UNL d   1     -28.167  22.755  23.217  0.00  0.00     0.008 A 
BRANCH  16  19
ATOM     19  C   UNL d   1     -24.778  21.931  21.828  0.00  0.00     0.292 C 
ATOM     20  O   UNL d   1     -24.296  21.165  21.018  0.00  0.00    -0.259 OA
BRANCH  19  21
ATOM     21  O   UNL d   1     -23.975  22.704  22.585  0.00  0.00    -0.323 OA
ATOM     22  C   UNL d   1     -23.440  23.903  21.966  0.00  0.00     0.213 C 
ENDBRANCH  19  21
ENDBRANCH  16  19
ENDBRANCH  12  13
ENDBRANCH  11  12
ENDBRANCH   1  11
BRANCH   2  23
ATOM     23  C   UNL d   1     -33.225  21.129  23.320  0.00  0.00     0.194 C 
ATOM     24  O   UNL d   1     -33.468  20.408  22.374  0.00  0.00    -0.645 OA
BRANCH  23  25
ATOM     25  OXT UNL d   1     -33.800  22.344  23.405  0.00  0.00    -0.772 OA
ATOM     26  HXT UNL d   1     -34.753  22.390  23.251  0.00  0.00     0.167 HD
ENDBRANCH  23  25
ENDBRANCH   2  23
TORSDOF 7
ENDMDL
