MODEL 1
REMARK VINA RESULT:     -11.4      0.000      0.000
REMARK  8 active torsions:
REMARK  status: ('A' for Active; 'I' for Inactive)
REMARK    1  A    between atoms: C_2  and  O_3 
REMARK    2  A    between atoms: C_2  and  C_35 
REMARK    3  A    between atoms: O_3  and  C_4 
REMARK    4  A    between atoms: C_6  and  N_7 
REMARK    5  A    between atoms: C_16  and  C_17 
REMARK    6  A    between atoms: C_17  and  O_19 
REMARK    7  A    between atoms: C_23  and  C_24 
REMARK       I    between atoms: C_24  and  N_26 
REMARK    8  A    between atoms: N_26  and  C_27 
ROOT
ATOM      1  C   UNL d   1     -24.673  23.424  22.638  0.00  0.00     0.087 A 
ATOM      2  C   UNL d   1     -25.940  22.890  22.795  0.00  0.00     0.073 A 
ATOM      3  C   UNL d   1     -26.798  23.408  23.756  0.00  0.00     0.104 A 
ATOM      4  C   UNL d   1     -26.388  24.467  24.565  0.00  0.00     0.146 A 
ATOM      5  F   UNL d   1     -27.228  24.967  25.499  0.00  0.00    -0.204 F 
ATOM      6  C   UNL d   1     -25.127  25.002  24.421  0.00  0.00     0.064 A 
ATOM      7  C   UNL d   1     -24.259  24.489  23.451  0.00  0.00     0.068 A 
ENDROOT
BRANCH   3   8
ATOM      8  N   UNL d   1     -28.076  22.868  23.912  0.00  0.00    -0.178 N 
ATOM      9  C   UNL d   1     -28.488  22.064  24.916  0.00  0.00     0.351 A 
ATOM     10  N   UNL d   1     -29.773  21.750  24.677  0.00  0.00    -0.283 N 
ATOM     11  O   UNL d   1     -27.820  21.694  25.864  0.00  0.00    -0.244 OA
ATOM     12  C   UNL d   1     -30.170  22.395  23.524  0.00  0.00     0.145 A 
ATOM     13  C   UNL d   1     -30.633  20.856  25.458  0.00  0.00     0.135 C 
ATOM     14  N   UNL d   1     -29.169  23.056  23.051  0.00  0.00    -0.148 NA
ATOM     15  C   UNL d   1     -31.572  22.326  22.964  0.00  0.00     0.155 C 
ATOM     16  C   UNL d   1     -32.269  21.107  23.583  0.00  0.00     0.025 C 
ATOM     17  C   UNL d   1     -32.096  21.150  25.104  0.00  0.00     0.022 C 
BRANCH  15  18
ATOM     18  C   UNL d   1     -31.515  22.173  21.466  0.00  0.00     0.151 C 
ATOM     19  O   UNL d   1     -32.523  21.930  20.844  0.00  0.00    -0.649 OA
BRANCH  18  20
ATOM     20  O   UNL d   1     -30.346  22.310  20.822  0.00  0.00    -0.776 OA
ATOM     21  H   UNL d   1     -30.106  21.614  20.194  0.00  0.00     0.167 HD
ENDBRANCH  18  20
ENDBRANCH  15  18
ENDBRANCH   3   8
BRANCH   1  22
ATOM     22  O   UNL d   1     -23.833  22.919  21.699  0.00  0.00    -0.336 OA
BRANCH  22  23
ATOM     23  C   UNL d   1     -23.976  23.416  20.367  0.00  0.00     0.232 C 
ATOM     24  C   UNL d   1     -22.611  23.870  19.843  0.00  0.00     0.049 C 
BRANCH  23  25
ATOM     25  C   UNL d   1     -24.526  22.310  19.464  0.00  0.00     0.413 C 
ATOM     26  F   UNL d   1     -24.579  22.770  18.144  0.00  0.00    -0.168 F 
ATOM     27  F   UNL d   1     -23.690  21.191  19.536  0.00  0.00    -0.168 F 
ATOM     28  F   UNL d   1     -25.813  21.960  19.888  0.00  0.00    -0.168 F 
ENDBRANCH  23  25
ENDBRANCH  22  23
ENDBRANCH   1  22
BRANCH   7  29
ATOM     29  C   UNL d   1     -22.912  25.063  23.288  0.00  0.00     0.259 C 
ATOM     30  O   UNL d   1     -22.750  26.046  22.590  0.00  0.00    -0.267 OA
ATOM     31  N   UNL d   1     -21.858  24.498  23.912  0.00  0.00    -0.319 N 
ATOM     32  H   UNL d   1     -21.998  23.767  24.533  0.00  0.00     0.169 HD
BRANCH  31  33
ATOM     33  C   UNL d   1     -20.564  24.972  23.666  0.00  0.00     0.096 A 
ATOM     34  C   UNL d   1     -20.031  25.983  24.454  0.00  0.00     0.064 A 
ATOM     35  C   UNL d   1     -18.750  26.445  24.212  0.00  0.00     0.026 A 
ATOM     36 CL   UNL d   1     -20.969  26.664  25.747  0.00  0.00    -0.082 Cl
ATOM     37  C   UNL d   1     -18.004  25.908  23.180  0.00  0.00     0.005 A 
ATOM     38  C   UNL d   1     -18.533  24.905  22.389  0.00  0.00     0.045 A 
ATOM     39  C   UNL d   1     -19.810  24.434  22.628  0.00  0.00     0.144 A 
ATOM     40  F   UNL d   1     -20.326  23.454  21.855  0.00  0.00    -0.204 F 
ENDBRANCH  31  33
ENDBRANCH   7  29
TORSDOF 8
ENDMDL
