MODEL 1
REMARK VINA RESULT:      -8.8      0.000      0.000
REMARK  6 active torsions:
REMARK  status: ('A' for Active; 'I' for Inactive)
REMARK    1  A    between atoms: C_2  and  N_3 
REMARK    2  A    between atoms: C_4  and  C_5 
REMARK    3  A    between atoms: C_5  and  O_6 
REMARK    4  A    between atoms: N_8  and  C_9 
REMARK    5  A    between atoms: N_15  and  C_16 
REMARK    6  A    between atoms: C_25  and  C_26 
ROOT
ATOM      1  C   UNL d   1     -26.396  23.309  24.279  0.00  0.00     0.064 A 
ATOM      2  C   UNL d   1     -26.670  23.145  25.638  0.00  0.00     0.033 A 
ATOM      3  C   UNL d   1     -27.842  22.581  26.051  0.00  0.00     0.020 A 
ATOM      4  C   UNL d   1     -28.781  22.161  25.106  0.00  0.00     0.043 A 
ATOM      5  C   UNL d   1     -30.053  21.550  25.497  0.00  0.00     0.263 A 
ATOM      6  O   UNL d   1     -30.325  21.393  26.675  0.00  0.00    -0.267 OA
ATOM      7  N   UNL d   1     -30.922  21.165  24.541  0.00  0.00    -0.285 N 
ATOM      8  C   UNL d   1     -30.658  21.322  23.209  0.00  0.00     0.109 A 
ATOM      9  C   UNL d   1     -29.517  21.872  22.763  0.00  0.00    -0.022 A 
ATOM     10  C   UNL d   1     -28.509  22.318  23.726  0.00  0.00    -0.010 A 
ATOM     11  C   UNL d   1     -27.309  22.901  23.321  0.00  0.00     0.044 A 
ENDROOT
BRANCH   1  12
ATOM     12  N   UNL d   1     -25.188  23.890  23.881  0.00  0.00    -0.181 N 
ATOM     13  N   UNL d   1     -24.028  23.208  23.490  0.00  0.00    -0.147 NA
ATOM     14  C   UNL d   1     -23.124  24.087  23.197  0.00  0.00     0.154 A 
ATOM     15  N   UNL d   1     -23.651  25.342  23.381  0.00  0.00    -0.283 N 
ATOM     16  C   UNL d   1     -24.926  25.210  23.798  0.00  0.00     0.351 A 
ATOM     17  O   UNL d   1     -25.698  26.117  24.055  0.00  0.00    -0.244 OA
BRANCH  14  18
ATOM     18  C   UNL d   1     -21.725  23.783  22.729  0.00  0.00     0.244 C 
BRANCH  18  19
ATOM     19  O   UNL d   1     -20.821  23.877  23.832  0.00  0.00    -0.393 OA
ATOM     20  H   UNL d   1     -20.898  23.152  24.466  0.00  0.00     0.209 HD
ENDBRANCH  18  19
ENDBRANCH  14  18
BRANCH  15  21
ATOM     21  C   UNL d   1     -22.948  26.608  23.157  0.00  0.00     0.131 C 
ATOM     22  C   UNL d   1     -22.295  27.067  24.463  0.00  0.00     0.027 C 
ENDBRANCH  15  21
ENDBRANCH   1  12
BRANCH   9  23
ATOM     23  C   UNL d   1     -29.275  22.024  21.283  0.00  0.00    -0.015 A 
ATOM     24  C   UNL d   1     -30.495  22.235  20.385  0.00  0.00     0.015 A 
ATOM     25  C   UNL d   1     -29.539  23.397  20.661  0.00  0.00     0.015 A 
ATOM     26  C   UNL d   1     -28.114  21.204  20.716  0.00  0.00     0.020 C 
ENDBRANCH   9  23
BRANCH   7  27
ATOM     27  C   UNL d   1     -32.136  20.581  24.925  0.00  0.00     0.085 A 
ATOM     28  C   UNL d   1     -33.336  21.091  24.447  0.00  0.00     0.063 A 
ATOM     29  C   UNL d   1     -34.532  20.513  24.828  0.00  0.00     0.026 A 
ATOM     30 CL   UNL d   1     -33.335  22.455  23.373  0.00  0.00    -0.082 Cl
ATOM     31  C   UNL d   1     -34.535  19.425  25.684  0.00  0.00     0.003 A 
ATOM     32  C   UNL d   1     -33.341  18.915  26.160  0.00  0.00     0.026 A 
ATOM     33  C   UNL d   1     -32.141  19.485  25.779  0.00  0.00     0.063 A 
ATOM     34 CL   UNL d   1     -30.644  18.838  26.373  0.00  0.00    -0.082 Cl
ENDBRANCH   7  27
TORSDOF 6
ENDMDL
