MODEL 1
REMARK VINA RESULT:     -10.6      0.000      0.000
REMARK  6 active torsions:
REMARK  status: ('A' for Active; 'I' for Inactive)
REMARK    1  A    between atoms: O_2  and  C_3 
REMARK    2  A    between atoms: C_7  and  C_8 
REMARK    3  A    between atoms: C_12  and  N_13 
REMARK    4  A    between atoms: N_13  and  C_14 
REMARK    5  A    between atoms: C_19  and  C_20 
REMARK    6  A    between atoms: C_20  and  O_22 
ROOT
ATOM      1  C   UNL d   1     -24.414  23.524  22.528  0.00  0.00    -0.017 A 
ATOM      2  C   UNL d   1     -25.038  22.349  22.111  0.00  0.00     0.057 A 
ATOM      3  C   UNL d   1     -26.237  21.967  22.677  0.00  0.00     0.146 A 
ATOM      4  F   UNL d   1     -26.839  20.826  22.278  0.00  0.00    -0.204 F 
ATOM      5  C   UNL d   1     -26.830  22.759  23.655  0.00  0.00     0.112 A 
ATOM      6  C   UNL d   1     -26.212  23.935  24.068  0.00  0.00     0.146 A 
ATOM      7  F   UNL d   1     -26.789  24.704  25.018  0.00  0.00    -0.204 F 
ATOM      8  C   UNL d   1     -25.009  24.317  23.507  0.00  0.00     0.057 A 
ENDROOT
BRANCH   5   9
ATOM      9  N   UNL d   1     -28.049  22.373  24.224  0.00  0.00    -0.335 N 
ATOM     10  H   UNL d   1     -28.092  22.135  25.163  0.00  0.00     0.168 HD
BRANCH   9  11
ATOM     11  C   UNL d   1     -29.192  22.331  23.447  0.00  0.00     0.144 A 
ATOM     12  C   UNL d   1     -30.411  21.923  24.017  0.00  0.00     0.083 A 
ATOM     13  C   UNL d   1     -31.554  21.888  23.210  0.00  0.00     0.024 A 
ATOM     14  C   UNL d   1     -31.434  22.260  21.883  0.00  0.00     0.020 A 
ATOM     15  C   UNL d   1     -30.200  22.651  21.394  0.00  0.00     0.119 A 
ATOM     16  N   UNL d   1     -29.135  22.682  22.171  0.00  0.00    -0.242 NA
BRANCH  12  17
ATOM     17  C   UNL d   1     -30.483  21.537  25.437  0.00  0.00     0.180 C 
ATOM     18  O   UNL d   1     -31.402  21.930  26.128  0.00  0.00    -0.646 OA
BRANCH  17  19
ATOM     19  O   UNL d   1     -29.529  20.748  25.969  0.00  0.00    -0.773 OA
ATOM     20  H   UNL d   1     -29.613  19.795  25.821  0.00  0.00     0.167 HD
ENDBRANCH  17  19
ENDBRANCH  12  17
ENDBRANCH   9  11
ENDBRANCH   5   9
BRANCH   1  21
ATOM     21  C   UNL d   1     -23.122  23.934  21.925  0.00  0.00     0.016 A 
ATOM     22  C   UNL d   1     -23.083  24.426  20.621  0.00  0.00     0.015 A 
ATOM     23  C   UNL d   1     -21.880  24.806  20.063  0.00  0.00     0.004 A 
ATOM     24  C   UNL d   1     -20.710  24.701  20.792  0.00  0.00     0.040 A 
ATOM     25  C   UNL d   1     -20.739  24.216  22.092  0.00  0.00     0.107 A 
ATOM     26  C   UNL d   1     -21.943  23.826  22.660  0.00  0.00     0.160 A 
ATOM     27  F   UNL d   1     -21.972  23.350  23.924  0.00  0.00    -0.202 F 
BRANCH  25  28
ATOM     28  O   UNL d   1     -19.586  24.118  22.807  0.00  0.00    -0.353 OA
ATOM     29  C   UNL d   1     -19.118  25.307  23.448  0.00  0.00     0.210 C 
ENDBRANCH  25  28
ENDBRANCH   1  21
TORSDOF 6
ENDMDL
