MODEL 1
REMARK VINA RESULT:     -11.7      0.000      0.000
REMARK  4 active torsions:
REMARK  status: ('A' for Active; 'I' for Inactive)
REMARK       I    between atoms: C_2  and  N_3 
REMARK    1  A    between atoms: C_2  and  C_27 
REMARK    2  A    between atoms: N_3  and  C_4 
REMARK    3  A    between atoms: N_12  and  C_13 
REMARK    4  A    between atoms: C_17  and  C_18 
REMARK       I    between atoms: C_18  and  N_20 
ROOT
ATOM      1  C   UNL d   1     -27.176  22.280  23.259  0.00  0.00     0.121 C 
ATOM      2  C   UNL d   1     -27.291  23.554  24.104  0.00  0.00     0.030 C 
ATOM      3  C   UNL d   1     -25.964  23.812  24.822  0.00  0.00     0.008 C 
ATOM      4  C   UNL d   1     -24.903  24.239  23.801  0.00  0.00     0.060 C 
ATOM      5  C   UNL d   1     -24.913  23.249  22.663  0.00  0.00     0.046 A 
ATOM      6  C   UNL d   1     -25.924  22.376  22.422  0.00  0.00     0.008 A 
ATOM      7  C   UNL d   1     -25.586  21.622  21.300  0.00  0.00     0.150 A 
ATOM      8  N   UNL d   1     -24.413  22.027  20.877  0.00  0.00    -0.179 NA
ATOM      9  N   UNL d   1     -23.969  23.054  21.723  0.00  0.00    -0.238 N 
ENDROOT
BRANCH   9  10
ATOM     10  C   UNL d   1     -22.760  23.754  21.610  0.00  0.00     0.059 A 
ATOM     11  C   UNL d   1     -22.002  24.016  22.741  0.00  0.00     0.048 A 
ATOM     12  C   UNL d   1     -20.800  24.712  22.623  0.00  0.00     0.034 A 
ATOM     13  C   UNL d   1     -20.367  25.142  21.368  0.00  0.00     0.017 A 
ATOM     14  C   UNL d   1     -21.129  24.876  20.247  0.00  0.00     0.003 A 
ATOM     15  C   UNL d   1     -22.317  24.180  20.364  0.00  0.00     0.031 A 
BRANCH  12  16
ATOM     16  C   UNL d   1     -19.987  24.995  23.824  0.00  0.00     0.254 C 
ATOM     17  O   UNL d   1     -19.072  24.254  24.128  0.00  0.00    -0.267 OA
ATOM     18  N   UNL d   1     -20.258  26.076  24.584  0.00  0.00    -0.344 N 
ATOM     19  C   UNL d   1     -21.426  26.925  24.301  0.00  0.00     0.152 C 
ATOM     20  C   UNL d   1     -19.398  26.437  25.722  0.00  0.00     0.152 C 
ATOM     21  C   UNL d   1     -22.213  27.111  25.603  0.00  0.00     0.187 C 
ATOM     22  O   UNL d   1     -21.328  27.570  26.629  0.00  0.00    -0.388 OA
ATOM     23  C   UNL d   1     -20.282  26.650  26.951  0.00  0.00     0.187 C 
ENDBRANCH  12  16
ENDBRANCH   9  10
BRANCH   1  24
ATOM     24  N   UNL d   1     -28.346  22.161  22.384  0.00  0.00    -0.347 N 
ATOM     25  C   UNL d   1     -29.586  22.186  22.911  0.00  0.00     0.273 C 
ATOM     26  O   UNL d   1     -29.735  22.305  24.110  0.00  0.00    -0.266 OA
ATOM     27  H   UNL d   1     -28.227  22.065  21.426  0.00  0.00     0.163 HD
BRANCH  25  28
ATOM     28  C   UNL d   1     -30.770  22.065  22.025  0.00  0.00     0.160 A 
ATOM     29  C   UNL d   1     -32.037  21.549  22.363  0.00  0.00     0.010 A 
ATOM     30  C   UNL d   1     -32.763  21.656  21.225  0.00  0.00     0.087 A 
ATOM     31  C   UNL d   1     -32.553  21.007  23.664  0.00  0.00     0.044 C 
ATOM     32  O   UNL d   1     -31.958  22.188  20.308  0.00  0.00    -0.217 OA
ATOM     33  C   UNL d   1     -34.200  21.221  21.105  0.00  0.00     0.068 C 
ATOM     34  N   UNL d   1     -30.854  22.413  20.760  0.00  0.00    -0.122 NA
ATOM     35  C   UNL d   1     -34.527  20.305  22.293  0.00  0.00     0.007 C 
ATOM     36  C   UNL d   1     -34.087  20.973  23.598  0.00  0.00     0.005 C 
ENDBRANCH  25  28
ENDBRANCH   1  24
TORSDOF 4
ENDMDL
