MODEL 1
REMARK VINA RESULT:      -9.1      0.000      0.000
REMARK  7 active torsions:
REMARK  status: ('A' for Active; 'I' for Inactive)
REMARK    1  A    between atoms: C_2  and  O_3 
REMARK    2  A    between atoms: C_2  and  C_33 
REMARK    3  A    between atoms: O_3  and  C_4 
REMARK    4  A    between atoms: C_6  and  N_7 
REMARK    5  A    between atoms: C_9  and  C_10 
REMARK    6  A    between atoms: C_21  and  C_22 
REMARK       I    between atoms: C_22  and  N_24 
REMARK    7  A    between atoms: N_24  and  C_25 
ROOT
ATOM      1  C   UNL d   1     -24.741  23.292  22.524  0.00  0.00     0.087 A 
ATOM      2  C   UNL d   1     -26.020  22.774  22.620  0.00  0.00     0.073 A 
ATOM      3  C   UNL d   1     -26.894  23.253  23.586  0.00  0.00     0.104 A 
ATOM      4  C   UNL d   1     -26.488  24.259  24.463  0.00  0.00     0.146 A 
ATOM      5  F   UNL d   1     -27.344  24.722  25.400  0.00  0.00    -0.204 F 
ATOM      6  C   UNL d   1     -25.218  24.782  24.376  0.00  0.00     0.064 A 
ATOM      7  C   UNL d   1     -24.331  24.304  23.406  0.00  0.00     0.068 A 
ENDROOT
BRANCH   7   8
ATOM      8  C   UNL d   1     -22.970  24.861  23.310  0.00  0.00     0.259 C 
ATOM      9  O   UNL d   1     -22.781  25.909  22.722  0.00  0.00    -0.267 OA
ATOM     10  N   UNL d   1     -21.934  24.209  23.876  0.00  0.00    -0.318 N 
ATOM     11  H   UNL d   1     -22.071  23.336  24.275  0.00  0.00     0.169 HD
BRANCH  10  12
ATOM     12  C   UNL d   1     -20.661  24.793  23.884  0.00  0.00     0.113 A 
ATOM     13  C   UNL d   1     -20.278  25.614  24.939  0.00  0.00     0.146 A 
ATOM     14  C   UNL d   1     -19.020  26.189  24.945  0.00  0.00     0.045 A 
ATOM     15  F   UNL d   1     -21.134  25.849  25.957  0.00  0.00    -0.204 F 
ATOM     16  C   UNL d   1     -18.144  25.949  23.904  0.00  0.00     0.006 A 
ATOM     17  C   UNL d   1     -18.520  25.132  22.852  0.00  0.00     0.045 A 
ATOM     18  C   UNL d   1     -19.775  24.549  22.842  0.00  0.00     0.146 A 
ATOM     19  F   UNL d   1     -20.140  23.748  21.817  0.00  0.00    -0.204 F 
ENDBRANCH  10  12
ENDBRANCH   7   8
BRANCH   1  20
ATOM     20  O   UNL d   1     -23.885  22.824  21.581  0.00  0.00    -0.336 OA
BRANCH  20  21
ATOM     21  C   UNL d   1     -23.968  23.413  20.281  0.00  0.00     0.232 C 
ATOM     22  C   UNL d   1     -22.575  23.866  19.837  0.00  0.00     0.049 C 
BRANCH  21  23
ATOM     23  C   UNL d   1     -24.512  22.385  19.288  0.00  0.00     0.413 C 
ATOM     24  F   UNL d   1     -25.796  21.993  19.680  0.00  0.00    -0.168 F 
ATOM     25  F   UNL d   1     -24.565  22.952  18.011  0.00  0.00    -0.168 F 
ATOM     26  F   UNL d   1     -23.669  21.267  19.267  0.00  0.00    -0.168 F 
ENDBRANCH  21  23
ENDBRANCH  20  21
ENDBRANCH   1  20
BRANCH   3  27
ATOM     27  N   UNL d   1     -28.187  22.732  23.677  0.00  0.00    -0.178 N 
ATOM     28  C   UNL d   1     -29.128  22.758  22.711  0.00  0.00     0.351 A 
ATOM     29  N   UNL d   1     -30.226  22.149  23.201  0.00  0.00    -0.288 N 
ATOM     30  O   UNL d   1     -29.009  23.242  21.600  0.00  0.00    -0.244 OA
ATOM     31  C   UNL d   1     -29.959  21.749  24.488  0.00  0.00     0.138 A 
ATOM     32  C   UNL d   1     -31.490  21.950  22.486  0.00  0.00     0.163 C 
ATOM     33  N   UNL d   1     -28.747  22.089  24.788  0.00  0.00    -0.148 NA
BRANCH  31  34
ATOM     34  C   UNL d   1     -30.921  21.032  25.402  0.00  0.00     0.011 C 
ATOM     35  C   UNL d   1     -31.867  22.049  26.044  0.00  0.00     0.023 C 
ATOM     36  C   UNL d   1     -31.733  20.018  24.593  0.00  0.00     0.023 C 
ATOM     37  C   UNL d   1     -30.137  20.303  26.495  0.00  0.00     0.023 C 
ENDBRANCH  31  34
ENDBRANCH   3  27
TORSDOF 7
ENDMDL
