MODEL 1
REMARK VINA RESULT:     -10.7      0.000      0.000
REMARK  8 active torsions:
REMARK  status: ('A' for Active; 'I' for Inactive)
REMARK    1  A    between atoms: C_2  and  C_3 
REMARK    2  A    between atoms: C_3  and  C_4 
REMARK    3  A    between atoms: C_4  and  O_6 
REMARK    4  A    between atoms: O_6  and  C_7 
REMARK    5  A    between atoms: C_9  and  N_10 
REMARK    6  A    between atoms: C_23  and  C_24 
REMARK       I    between atoms: C_24  and  N_26 
REMARK    7  A    between atoms: N_26  and  C_27 
REMARK    8  A    between atoms: C_30  and  N_31 
ROOT
ATOM      1  C   UNL d   1     -26.063  23.290  23.355  0.00  0.00     0.087 A 
ATOM      2  C   UNL d   1     -27.435  23.121  23.417  0.00  0.00     0.073 A 
ATOM      3  C   UNL d   1     -28.070  22.257  22.535  0.00  0.00     0.104 A 
ATOM      4  C   UNL d   1     -27.331  21.564  21.577  0.00  0.00     0.146 A 
ATOM      5  F   UNL d   1     -27.956  20.729  20.718  0.00  0.00    -0.204 F 
ATOM      6  C   UNL d   1     -25.965  21.728  21.503  0.00  0.00     0.064 A 
ATOM      7  C   UNL d   1     -25.317  22.594  22.391  0.00  0.00     0.068 A 
ENDROOT
BRANCH   7   8
ATOM      8  C   UNL d   1     -23.857  22.773  22.316  0.00  0.00     0.259 C 
ATOM      9  O   UNL d   1     -23.118  21.830  22.520  0.00  0.00    -0.267 OA
ATOM     10  N   UNL d   1     -23.341  23.983  22.023  0.00  0.00    -0.322 N 
ATOM     11  H   UNL d   1     -23.930  24.715  21.781  0.00  0.00     0.169 HD
BRANCH  10  12
ATOM     12  C   UNL d   1     -21.955  24.183  22.067  0.00  0.00     0.041 A 
ATOM     13  C   UNL d   1     -21.246  24.392  20.892  0.00  0.00    -0.033 A 
ATOM     14  C   UNL d   1     -19.881  24.595  20.937  0.00  0.00     0.038 A 
ATOM     15  C   UNL d   1     -21.967  24.405  19.569  0.00  0.00     0.050 C 
ATOM     16  C   UNL d   1     -19.216  24.577  22.155  0.00  0.00     0.026 A 
ATOM     17  C   UNL d   1     -19.925  24.363  23.331  0.00  0.00     0.031 A 
ATOM     18  C   UNL d   1     -21.291  24.166  23.286  0.00  0.00     0.032 A 
BRANCH  16  19
ATOM     19  N   UNL d   1     -17.832  24.776  22.200  0.00  0.00    -0.399 N 
ATOM     20  H   UNL d   1     -17.347  24.995  21.390  0.00  0.00     0.156 HD
ATOM     21  H   UNL d   1     -17.358  24.695  23.042  0.00  0.00     0.156 HD
ENDBRANCH  16  19
ENDBRANCH  10  12
ENDBRANCH   7   8
BRANCH   1  22
ATOM     22  O   UNL d   1     -25.440  24.131  24.220  0.00  0.00    -0.345 OA
BRANCH  22  23
ATOM     23  C   UNL d   1     -25.765  25.519  24.122  0.00  0.00     0.124 C 
ATOM     24  C   UNL d   1     -26.258  26.023  25.481  0.00  0.00     0.040 C 
BRANCH  23  25
ATOM     25  C   UNL d   1     -24.522  26.306  23.707  0.00  0.00     0.032 C 
BRANCH  25  26
ATOM     26  C   UNL d   1     -23.524  26.334  24.867  0.00  0.00    -0.002 C 
ATOM     27  C   UNL d   1     -22.348  27.243  24.506  0.00  0.00     0.005 C 
ENDBRANCH  25  26
ENDBRANCH  23  25
ENDBRANCH  22  23
ENDBRANCH   1  22
BRANCH   3  28
ATOM     28  N   UNL d   1     -29.454  22.086  22.605  0.00  0.00    -0.178 N 
ATOM     29  C   UNL d   1     -30.164  21.732  23.698  0.00  0.00     0.351 A 
ATOM     30  N   UNL d   1     -31.460  21.710  23.345  0.00  0.00    -0.284 N 
ATOM     31  O   UNL d   1     -29.711  21.478  24.800  0.00  0.00    -0.244 OA
ATOM     32  C   UNL d   1     -31.550  22.016  22.003  0.00  0.00     0.131 A 
ATOM     33  C   UNL d   1     -32.615  21.435  24.207  0.00  0.00     0.135 C 
ATOM     34  N   UNL d   1     -30.365  22.250  21.550  0.00  0.00    -0.149 NA
ATOM     35  C   UNL d   1     -32.851  22.051  21.236  0.00  0.00     0.081 C 
ATOM     36  C   UNL d   1     -33.998  22.150  22.250  0.00  0.00     0.009 C 
ATOM     37  C   UNL d   1     -33.812  21.071  23.322  0.00  0.00     0.021 C 
ENDBRANCH   3  28
TORSDOF 8
ENDMDL
