MODEL 1
REMARK VINA RESULT:     -11.1      0.000      0.000
REMARK  7 active torsions:
REMARK  status: ('A' for Active; 'I' for Inactive)
REMARK    1  A    between atoms: C_2  and  O_3 
REMARK    2  A    between atoms: C_2  and  C_4 
REMARK    3  A    between atoms: C_6  and  C_7 
REMARK    4  A    between atoms: C_12  and  N_13 
REMARK    5  A    between atoms: N_13  and  C_14 
REMARK    6  A    between atoms: C_17  and  C_18 
REMARK    7  A    between atoms: C_23  and  C_24 
ROOT
ATOM      1  C   UNL d   1     -25.002  22.450  22.116  0.00  0.00     0.068 A 
ATOM      2  C   UNL d   1     -25.521  23.352  23.043  0.00  0.00     0.150 A 
ATOM      3  N   UNL d   1     -26.753  23.180  23.488  0.00  0.00    -0.238 NA
ATOM      4  C   UNL d   1     -27.488  22.158  23.073  0.00  0.00     0.160 A 
ATOM      5  N   UNL d   1     -27.027  21.277  22.196  0.00  0.00    -0.238 NA
ATOM      6  C   UNL d   1     -25.806  21.388  21.702  0.00  0.00     0.150 A 
ENDROOT
BRANCH   1   7
ATOM      7  N   UNL d   1     -23.707  22.602  21.616  0.00  0.00    -0.353 N 
ATOM      8  H   UNL d   1     -23.428  22.106  20.831  0.00  0.00     0.166 HD
BRANCH   7   9
ATOM      9  C   UNL d   1     -22.817  23.463  22.245  0.00  0.00     0.049 A 
ATOM     10  C   UNL d   1     -22.251  24.535  21.536  0.00  0.00     0.064 A 
ATOM     11  C   UNL d   1     -21.356  25.393  22.181  0.00  0.00     0.028 A 
ATOM     12  C   UNL d   1     -21.036  25.184  23.504  0.00  0.00    -0.053 A 
ATOM     13  C   UNL d   1     -21.593  24.122  24.200  0.00  0.00     0.010 A 
ATOM     14  C   UNL d   1     -22.482  23.270  23.580  0.00  0.00     0.031 A 
BRANCH  10  15
ATOM     15  C   UNL d   1     -22.598  24.752  20.120  0.00  0.00     0.178 C 
ATOM     16  O   UNL d   1     -21.851  25.385  19.401  0.00  0.00    -0.646 OA
BRANCH  15  17
ATOM     17  O   UNL d   1     -23.745  24.248  19.624  0.00  0.00    -0.773 OA
ATOM     18  H   UNL d   1     -24.481  24.863  19.509  0.00  0.00     0.167 HD
ENDBRANCH  15  17
ENDBRANCH  10  15
BRANCH  12  19
ATOM     19  C   UNL d   1     -20.071  26.111  24.197  0.00  0.00     0.018 A 
ATOM     20  C   UNL d   1     -19.927  25.974  25.714  0.00  0.00     0.010 A 
ATOM     21  C   UNL d   1     -20.658  27.180  25.120  0.00  0.00     0.010 A 
ENDBRANCH  12  19
ENDBRANCH   7   9
ENDBRANCH   1   7
BRANCH   4  22
ATOM     22  C   UNL d   1     -28.865  21.997  23.602  0.00  0.00     0.027 A 
ATOM     23  C   UNL d   1     -29.962  22.149  22.758  0.00  0.00     0.061 A 
ATOM     24  C   UNL d   1     -31.239  21.999  23.256  0.00  0.00     0.017 A 
ATOM     25  C   UNL d   1     -31.432  21.699  24.592  0.00  0.00     0.001 A 
ATOM     26  C   UNL d   1     -30.347  21.548  25.437  0.00  0.00     0.001 A 
ATOM     27  C   UNL d   1     -29.064  21.690  24.948  0.00  0.00     0.016 A 
BRANCH  23  28
ATOM     28  C   UNL d   1     -29.753  22.477  21.301  0.00  0.00     0.418 C 
ATOM     29  F   UNL d   1     -30.994  22.623  20.673  0.00  0.00    -0.166 F 
ATOM     30  F   UNL d   1     -29.031  23.670  21.190  0.00  0.00    -0.166 F 
ATOM     31  F   UNL d   1     -29.040  21.441  20.687  0.00  0.00    -0.166 F 
ENDBRANCH  23  28
ENDBRANCH   4  22
TORSDOF 7
ENDMDL
