MODEL 1
REMARK VINA RESULT:     -10.1      0.000      0.000
REMARK  6 active torsions:
REMARK  status: ('A' for Active; 'I' for Inactive)
REMARK    1  A    between atoms: C_2  and  O_3 
REMARK    2  A    between atoms: O_3  and  C_4 
REMARK    3  A    between atoms: C_8  and  C_9 
REMARK    4  A    between atoms: C_12  and  N_13 
REMARK       I    between atoms: N_13  and  C_14 
REMARK    5  A    between atoms: C_14  and  C_16 
REMARK    6  A    between atoms: C_19  and  O_21 
ROOT
ATOM      1  C   UNL d   1     -30.985  21.855  23.913  0.00  0.00     0.141 C 
ATOM      2  C   UNL d   1     -31.099  21.569  25.312  0.00  0.00     0.107 C 
ATOM      3  N   UNL d   1     -31.190  21.342  26.422  0.00  0.00    -0.191 NA
ATOM      4  C   UNL d   1     -32.079  21.757  23.106  0.00  0.00     0.065 C 
ATOM      5  C   UNL d   1     -33.409  21.348  23.685  0.00  0.00     0.077 C 
ENDROOT
BRANCH   1   6
ATOM      6  C   UNL d   1     -29.688  22.255  23.349  0.00  0.00     0.269 C 
ATOM      7  N   UNL d   1     -28.559  21.644  23.756  0.00  0.00    -0.322 N 
ATOM      8  H   UNL d   1     -28.607  20.890  24.365  0.00  0.00     0.169 HD
ATOM      9  O   UNL d   1     -29.636  23.137  22.513  0.00  0.00    -0.266 OA
BRANCH   7  10
ATOM     10  C   UNL d   1     -27.316  22.098  23.304  0.00  0.00     0.035 A 
ATOM     11  C   UNL d   1     -26.652  23.105  23.992  0.00  0.00     0.030 A 
ATOM     12  C   UNL d   1     -25.424  23.548  23.551  0.00  0.00     0.014 A 
ATOM     13  C   UNL d   1     -24.853  22.993  22.407  0.00  0.00    -0.026 A 
ATOM     14  C   UNL d   1     -25.520  21.982  21.718  0.00  0.00     0.014 A 
ATOM     15  C   UNL d   1     -26.747  21.537  22.166  0.00  0.00     0.030 A 
BRANCH  13  16
ATOM     16  C   UNL d   1     -23.534  23.472  21.926  0.00  0.00    -0.023 A 
ATOM     17  C   UNL d   1     -23.362  23.822  20.588  0.00  0.00     0.012 A 
ATOM     18  C   UNL d   1     -22.134  24.273  20.146  0.00  0.00     0.004 A 
ATOM     19  C   UNL d   1     -21.072  24.375  21.024  0.00  0.00     0.037 A 
ATOM     20  C   UNL d   1     -21.234  24.023  22.358  0.00  0.00     0.069 A 
ATOM     21  C   UNL d   1     -22.462  23.569  22.810  0.00  0.00     0.049 A 
BRANCH  20  22
ATOM     22  O   UNL d   1     -20.187  24.125  23.219  0.00  0.00    -0.351 OA
BRANCH  22  23
ATOM     23  C   UNL d   1     -19.551  25.400  23.318  0.00  0.00     0.171 C 
ATOM     24  C   UNL d   1     -20.358  26.303  24.253  0.00  0.00     0.034 C 
ENDBRANCH  22  23
ENDBRANCH  20  22
ENDBRANCH  13  16
ENDBRANCH   7  10
ENDBRANCH   1   6
BRANCH   4  25
ATOM     25  O   UNL d   1     -31.973  22.026  21.793  0.00  0.00    -0.364 OA
ATOM     26  H   UNL d   1     -31.553  22.861  21.549  0.00  0.00     0.217 HD
ENDBRANCH   4  25
TORSDOF 6
ENDMDL
