MODEL 1
REMARK VINA RESULT:     -10.9      0.000      0.000
REMARK  3 active torsions:
REMARK  status: ('A' for Active; 'I' for Inactive)
REMARK    1  A    between atoms: C_3  and  O_4 
REMARK    2  A    between atoms: C_5  and  N_6 
REMARK    3  A    between atoms: N_9  and  C_10 
ROOT
ATOM      1  O   UNL d   1     -31.858  21.076  25.996  0.00  0.00    -0.284 OA
ATOM      2  C   UNL d   1     -31.302  21.395  24.963  0.00  0.00     0.218 A 
ATOM      3  C   UNL d   1     -29.843  21.566  24.935  0.00  0.00     0.148 A 
ATOM      4  C   UNL d   1     -29.207  21.923  23.790  0.00  0.00     0.119 A 
ATOM      5  C   UNL d   1     -29.967  22.144  22.545  0.00  0.00     0.212 A 
ATOM      6  O   UNL d   1     -29.387  22.463  21.525  0.00  0.00    -0.285 OA
ATOM      7  C   UNL d   1     -31.438  21.979  22.543  0.00  0.00     0.031 A 
ATOM      8  C   UNL d   1     -32.174  22.183  21.382  0.00  0.00     0.016 A 
ATOM      9  C   UNL d   1     -33.552  22.022  21.404  0.00  0.00     0.001 A 
ATOM     10  C   UNL d   1     -34.195  21.660  22.571  0.00  0.00     0.001 A 
ATOM     11  C   UNL d   1     -33.473  21.453  23.736  0.00  0.00     0.016 A 
ATOM     12  C   UNL d   1     -32.093  21.611  23.730  0.00  0.00     0.031 A 
ENDROOT
BRANCH   4  13
ATOM     13  N   UNL d   1     -27.829  22.078  23.790  0.00  0.00    -0.373 N 
ATOM     14  C   UNL d   1     -26.961  21.119  23.089  0.00  0.00     0.138 C 
ATOM     15  C   UNL d   1     -26.011  21.900  22.175  0.00  0.00     0.115 C 
ATOM     16  N   UNL d   1     -25.303  22.917  22.964  0.00  0.00    -0.280 NA
ATOM     17  C   UNL d   1     -26.237  23.905  23.521  0.00  0.00     0.115 C 
ATOM     18  C   UNL d   1     -27.196  23.209  24.485  0.00  0.00     0.138 C 
BRANCH  16  19
ATOM     19  C   UNL d   1     -24.311  23.540  22.203  0.00  0.00     0.010 A 
ATOM     20  C   UNL d   1     -24.006  23.064  20.934  0.00  0.00     0.025 A 
ATOM     21  C   UNL d   1     -23.024  23.681  20.183  0.00  0.00     0.025 A 
ATOM     22  C   UNL d   1     -22.345  24.772  20.694  0.00  0.00     0.034 A 
ATOM     23  C   UNL d   1     -22.646  25.250  21.957  0.00  0.00     0.025 A 
ATOM     24 CL   UNL d   1     -21.112  25.546  19.747  0.00  0.00    -0.084 Cl
ATOM     25  C   UNL d   1     -23.631  24.640  22.710  0.00  0.00     0.025 A 
ENDBRANCH  16  19
ENDBRANCH   4  13
BRANCH   3  26
ATOM     26  O   UNL d   1     -29.122  21.367  26.068  0.00  0.00    -0.355 OA
ATOM     27  H   UNL d   1     -29.138  22.113  26.682  0.00  0.00     0.218 HD
ENDBRANCH   3  26
TORSDOF 3
ENDMDL
