MODEL 1
REMARK VINA RESULT:      -9.2      0.000      0.000
REMARK  5 active torsions:
REMARK  status: ('A' for Active; 'I' for Inactive)
REMARK    1  A    between atoms: C_7  and  N_8 
REMARK    2  A    between atoms: C_10  and  C_11 
REMARK    3  A    between atoms: C_16  and  C_17 
REMARK    4  A    between atoms: C_19  and  C_20 
REMARK    5  A    between atoms: C_20  and  O_21 
ROOT
ATOM      1  N   UNL d   1     -24.147  23.396  22.626  0.00  0.00    -0.288 N 
ATOM      2  C   UNL d   1     -24.820  24.023  23.639  0.00  0.00     0.109 A 
ATOM      3  C   UNL d   1     -26.147  23.906  23.799  0.00  0.00    -0.027 A 
ATOM      4  C   UNL d   1     -26.916  23.080  22.866  0.00  0.00    -0.011 A 
ATOM      5  C   UNL d   1     -28.296  22.930  22.982  0.00  0.00     0.031 A 
ATOM      6  C   UNL d   1     -28.974  22.140  22.064  0.00  0.00     0.053 A 
ATOM      7  C   UNL d   1     -28.279  21.502  21.026  0.00  0.00     0.131 A 
ATOM      8  F   UNL d   1     -28.955  20.735  20.142  0.00  0.00    -0.205 F 
ATOM      9  C   UNL d   1     -26.927  21.646  20.900  0.00  0.00     0.061 A 
ATOM     10  C   UNL d   1     -26.225  22.437  21.812  0.00  0.00     0.046 A 
ATOM     11  C   UNL d   1     -24.773  22.622  21.718  0.00  0.00     0.263 A 
ATOM     12  O   UNL d   1     -24.140  22.081  20.829  0.00  0.00    -0.267 OA
ENDROOT
BRANCH   6  13
ATOM     13  C   UNL d   1     -30.443  21.968  22.181  0.00  0.00     0.184 A 
ATOM     14  N   UNL d   1     -31.316  22.156  21.216  0.00  0.00    -0.150 NA
ATOM     15  N   UNL d   1     -32.582  21.883  21.757  0.00  0.00    -0.256 N 
ATOM     16  C   UNL d   1     -32.383  21.547  23.046  0.00  0.00     0.148 A 
ATOM     17  C   UNL d   1     -33.869  21.953  21.059  0.00  0.00     0.181 C 
ATOM     18  N   UNL d   1     -31.100  21.601  23.289  0.00  0.00    -0.209 NA
BRANCH  16  19
ATOM     19  C   UNL d   1     -33.455  21.173  24.036  0.00  0.00     0.244 C 
BRANCH  19  20
ATOM     20  O   UNL d   1     -33.014  20.060  24.817  0.00  0.00    -0.393 OA
ATOM     21  H   UNL d   1     -33.073  19.210  24.359  0.00  0.00     0.209 HD
ENDBRANCH  19  20
ENDBRANCH  16  19
ENDBRANCH   6  13
BRANCH   3  22
ATOM     22  C   UNL d   1     -26.839  24.617  24.934  0.00  0.00     0.013 C 
ATOM     23  C   UNL d   1     -26.041  25.865  25.316  0.00  0.00     0.015 C 
ATOM     24  C   UNL d   1     -26.932  23.681  26.141  0.00  0.00     0.015 C 
ENDBRANCH   3  22
BRANCH   1  25
ATOM     25  C   UNL d   1     -22.761  23.567  22.526  0.00  0.00     0.048 A 
ATOM     26  C   UNL d   1     -22.225  24.323  21.493  0.00  0.00    -0.035 A 
ATOM     27  C   UNL d   1     -23.135  24.960  20.474  0.00  0.00     0.050 C 
ATOM     28  C   UNL d   1     -20.857  24.490  21.399  0.00  0.00     0.009 A 
ATOM     29  C   UNL d   1     -20.022  23.905  22.334  0.00  0.00     0.001 A 
ATOM     30  C   UNL d   1     -20.553  23.153  23.364  0.00  0.00     0.002 A 
ATOM     31  C   UNL d   1     -21.920  22.986  23.467  0.00  0.00     0.030 A 
ENDBRANCH   1  25
TORSDOF 5
ENDMDL
