MODEL 1
REMARK VINA RESULT:      -8.8      0.000      0.000
REMARK  4 active torsions:
REMARK  status: ('A' for Active; 'I' for Inactive)
REMARK    1  A    between atoms: C_6  and  N_7 
REMARK    2  A    between atoms: N_7  and  C_8 
REMARK    3  A    between atoms: C_11  and  O_12 
REMARK    4  A    between atoms: O_12  and  C_13 
ROOT
ATOM      1  C   UNL d   1     -22.195  24.845  20.196  0.00  0.00     0.074 C 
ATOM      2  C   UNL d   1     -23.267  23.787  20.135  0.00  0.00     0.075 A 
ATOM      3  N   UNL d   1     -23.878  23.378  19.059  0.00  0.00    -0.177 NA
ATOM      4  N   UNL d   1     -24.806  22.389  19.403  0.00  0.00    -0.261 N 
ATOM      5  H   UNL d   1     -25.391  21.922  18.786  0.00  0.00     0.191 HD
ATOM      6  C   UNL d   1     -24.751  22.197  20.738  0.00  0.00     0.145 A 
ATOM      7  C   UNL d   1     -23.788  23.070  21.238  0.00  0.00     0.115 A 
ATOM      8  C   UNL d   1     -23.397  23.214  22.608  0.00  0.00     0.105 C 
ATOM      9  N   UNL d   1     -23.088  23.328  23.695  0.00  0.00    -0.191 NA
ENDROOT
BRANCH   6  10
ATOM     10  N   UNL d   1     -25.510  21.305  21.471  0.00  0.00    -0.340 N 
ATOM     11  H   UNL d   1     -25.178  20.408  21.638  0.00  0.00     0.167 HD
BRANCH  10  12
ATOM     12  C   UNL d   1     -26.756  21.694  21.974  0.00  0.00     0.033 A 
ATOM     13  C   UNL d   1     -27.900  21.520  21.205  0.00  0.00     0.032 A 
ATOM     14  C   UNL d   1     -29.130  21.905  21.702  0.00  0.00     0.039 A 
ATOM     15  C   UNL d   1     -29.222  22.465  22.968  0.00  0.00     0.078 A 
ATOM     16  C   UNL d   1     -28.081  22.640  23.736  0.00  0.00     0.039 A 
ATOM     17  C   UNL d   1     -26.849  22.261  23.239  0.00  0.00     0.032 A 
BRANCH  15  18
ATOM     18  O   UNL d   1     -30.435  22.844  23.456  0.00  0.00    -0.255 OA
BRANCH  18  19
ATOM     19  C   UNL d   1     -31.201  21.849  24.136  0.00  0.00     0.530 C 
ATOM     20  F   UNL d   1     -32.086  21.245  23.236  0.00  0.00    -0.144 F 
ATOM     21  F   UNL d   1     -30.342  20.879  24.665  0.00  0.00    -0.144 F 
ATOM     22  F   UNL d   1     -31.926  22.446  25.172  0.00  0.00    -0.144 F 
ENDBRANCH  18  19
ENDBRANCH  15  18
ENDBRANCH  10  12
ENDBRANCH   6  10
TORSDOF 4
ENDMDL
