MODEL 1
REMARK VINA RESULT:     -11.2      0.000      0.000
REMARK  7 active torsions:
REMARK  status: ('A' for Active; 'I' for Inactive)
REMARK    1  A    between atoms: O_2  and  C_3 
REMARK    2  A    between atoms: C_7  and  C_8 
REMARK    3  A    between atoms: C_11  and  N_12 
REMARK    4  A    between atoms: N_12  and  C_13 
REMARK    5  A    between atoms: C_16  and  C_17 
REMARK    6  A    between atoms: C_22  and  C_23 
REMARK    7  A    between atoms: C_23  and  O_25 
ROOT
ATOM      1  N   UNL d   1     -28.200  22.360  24.438  0.00  0.00    -0.354 N 
ATOM      2  H   UNL d   1     -28.215  22.216  25.397  0.00  0.00     0.166 HD
ENDROOT
BRANCH   1   3
ATOM      3  C   UNL d   1     -27.000  22.681  23.800  0.00  0.00     0.050 A 
ATOM      4  C   UNL d   1     -26.300  23.829  24.154  0.00  0.00     0.146 A 
ATOM      5  N   UNL d   1     -25.168  24.139  23.558  0.00  0.00    -0.258 NA
ATOM      6  C   UNL d   1     -24.651  23.377  22.603  0.00  0.00     0.072 A 
ATOM      7  C   UNL d   1     -25.297  22.211  22.196  0.00  0.00    -0.030 A 
ATOM      8  C   UNL d   1     -26.491  21.857  22.797  0.00  0.00     0.040 A 
ATOM      9  C   UNL d   1     -24.705  21.350  21.111  0.00  0.00     0.050 C 
BRANCH   6  10
ATOM     10  C   UNL d   1     -23.374  23.770  21.961  0.00  0.00    -0.004 A 
ATOM     11  C   UNL d   1     -23.365  24.234  20.647  0.00  0.00     0.014 A 
ATOM     12  C   UNL d   1     -22.175  24.604  20.053  0.00  0.00     0.004 A 
ATOM     13  C   UNL d   1     -20.988  24.505  20.755  0.00  0.00     0.037 A 
ATOM     14  C   UNL d   1     -20.987  24.037  22.062  0.00  0.00     0.069 A 
ATOM     15  C   UNL d   1     -22.177  23.668  22.668  0.00  0.00     0.050 A 
BRANCH  14  16
ATOM     16  O   UNL d   1     -19.818  23.940  22.748  0.00  0.00    -0.356 OA
ATOM     17  C   UNL d   1     -19.647  24.814  23.866  0.00  0.00     0.210 C 
ENDBRANCH  14  16
ENDBRANCH   6  10
ENDBRANCH   1   3
BRANCH   1  18
ATOM     18  C   UNL d   1     -29.370  22.245  23.699  0.00  0.00     0.049 A 
ATOM     19  C   UNL d   1     -30.546  21.778  24.307  0.00  0.00     0.065 A 
ATOM     20  C   UNL d   1     -31.717  21.667  23.552  0.00  0.00     0.036 A 
ATOM     21  C   UNL d   1     -31.709  22.016  22.219  0.00  0.00     0.049 A 
ATOM     22  C   UNL d   1     -30.547  22.476  21.621  0.00  0.00     0.018 A 
ATOM     23  C   UNL d   1     -29.384  22.597  22.354  0.00  0.00     0.031 A 
BRANCH  19  24
ATOM     24  C   UNL d   1     -30.547  21.408  25.733  0.00  0.00     0.178 C 
ATOM     25  O   UNL d   1     -31.417  21.829  26.470  0.00  0.00    -0.646 OA
BRANCH  24  26
ATOM     26  O   UNL d   1     -29.581  20.606  26.222  0.00  0.00    -0.773 OA
ATOM     27  H   UNL d   1     -28.826  21.036  26.646  0.00  0.00     0.167 HD
ENDBRANCH  24  26
ENDBRANCH  19  24
BRANCH  21  28
ATOM     28  C   UNL d   1     -32.973  21.896  21.406  0.00  0.00     0.417 C 
ATOM     29  F   UNL d   1     -32.718  22.283  20.086  0.00  0.00    -0.166 F 
ATOM     30  F   UNL d   1     -33.416  20.570  21.426  0.00  0.00    -0.166 F 
ATOM     31  F   UNL d   1     -33.958  22.726  21.953  0.00  0.00    -0.166 F 
ENDBRANCH  21  28
ENDBRANCH   1  18
TORSDOF 7
ENDMDL
