MODEL 1
REMARK VINA RESULT:      -9.4      0.000      0.000
REMARK  9 active torsions:
REMARK  status: ('A' for Active; 'I' for Inactive)
REMARK    1  A    between atoms: C_2  and  N_3 
REMARK    2  A    between atoms: C_4  and  C_5 
REMARK    3  A    between atoms: C_5  and  O_6 
REMARK    4  A    between atoms: N_8  and  C_9 
REMARK    5  A    between atoms: C_11  and  O_12 
REMARK    6  A    between atoms: O_12  and  C_13 
REMARK    7  A    between atoms: C_13  and  C_15 
REMARK    8  A    between atoms: C_20  and  O_21 
REMARK    9  A    between atoms: O_21  and  C_22 
ROOT
ATOM      1  C   UNL d   1     -24.491  23.445  22.736  0.00  0.00     0.198 A 
ATOM      2  N   UNL d   1     -25.366  23.724  23.698  0.00  0.00    -0.201 NA
ATOM      3  C   UNL d   1     -26.608  23.280  23.682  0.00  0.00     0.183 A 
ATOM      4  C   UNL d   1     -27.048  22.476  22.618  0.00  0.00     0.087 A 
ATOM      5  C   UNL d   1     -28.354  21.960  22.525  0.00  0.00     0.207 A 
ATOM      6  N   UNL d   1     -28.671  21.218  21.478  0.00  0.00    -0.124 NA
ATOM      7  N   UNL d   1     -27.847  20.935  20.539  0.00  0.00    -0.159 NA
ATOM      8  C   UNL d   1     -26.601  21.353  20.518  0.00  0.00     0.156 A 
ATOM      9  C   UNL d   1     -26.137  22.154  21.575  0.00  0.00     0.045 A 
ATOM     10  C   UNL d   1     -24.829  22.653  21.653  0.00  0.00     0.177 A 
ATOM     11  F   UNL d   1     -23.926  22.380  20.686  0.00  0.00    -0.201 F 
ENDROOT
BRANCH   1  12
ATOM     12  N   UNL d   1     -23.193  23.956  22.826  0.00  0.00    -0.159 N 
ATOM     13  N   UNL d   1     -22.028  23.358  22.327  0.00  0.00    -0.145 NA
ATOM     14  C   UNL d   1     -21.028  24.132  22.602  0.00  0.00     0.154 A 
ATOM     15  N   UNL d   1     -21.493  25.232  23.282  0.00  0.00    -0.283 N 
ATOM     16  C   UNL d   1     -22.829  25.114  23.415  0.00  0.00     0.352 A 
ATOM     17  O   UNL d   1     -23.572  25.906  23.966  0.00  0.00    -0.244 OA
BRANCH  14  18
ATOM     18  C   UNL d   1     -19.589  23.869  22.241  0.00  0.00     0.244 C 
BRANCH  18  19
ATOM     19  O   UNL d   1     -19.311  24.428  20.955  0.00  0.00    -0.393 OA
ATOM     20  H   UNL d   1     -18.516  24.070  20.535  0.00  0.00     0.209 HD
ENDBRANCH  18  19
ENDBRANCH  14  18
BRANCH  15  21
ATOM     21  C   UNL d   1     -20.677  26.342  23.778  0.00  0.00     0.131 C 
ATOM     22  C   UNL d   1     -20.285  26.077  25.234  0.00  0.00     0.027 C 
ENDBRANCH  15  21
ENDBRANCH   1  12
BRANCH   3  23
ATOM     23  O   UNL d   1     -27.456  23.597  24.690  0.00  0.00    -0.319 OA
BRANCH  23  24
ATOM     24  C   UNL d   1     -26.937  23.532  26.020  0.00  0.00     0.234 C 
ATOM     25  C   UNL d   1     -27.362  24.779  26.796  0.00  0.00     0.049 C 
BRANCH  24  26
ATOM     26  C   UNL d   1     -27.483  22.285  26.719  0.00  0.00     0.413 C 
ATOM     27  F   UNL d   1     -26.483  21.723  27.520  0.00  0.00    -0.168 F 
ATOM     28  F   UNL d   1     -28.576  22.641  27.518  0.00  0.00    -0.168 F 
ATOM     29  F   UNL d   1     -27.891  21.353  25.759  0.00  0.00    -0.168 F 
ENDBRANCH  24  26
ENDBRANCH  23  24
ENDBRANCH   3  23
BRANCH   5  30
ATOM     30  O   UNL d   1     -29.271  22.226  23.486  0.00  0.00    -0.285 OA
BRANCH  30  31
ATOM     31  C   UNL d   1     -30.577  21.958  23.215  0.00  0.00     0.138 A 
ATOM     32  C   UNL d   1     -31.355  21.283  24.144  0.00  0.00     0.071 A 
ATOM     33  C   UNL d   1     -32.682  21.012  23.865  0.00  0.00     0.027 A 
ATOM     34 CL   UNL d   1     -30.664  20.780  25.656  0.00  0.00    -0.081 Cl
ATOM     35  C   UNL d   1     -33.234  21.412  22.663  0.00  0.00     0.005 A 
ATOM     36  C   UNL d   1     -32.461  22.085  21.734  0.00  0.00     0.045 A 
ATOM     37  C   UNL d   1     -31.132  22.354  22.005  0.00  0.00     0.151 A 
ATOM     38  F   UNL d   1     -30.375  23.006  21.094  0.00  0.00    -0.203 F 
ENDBRANCH  30  31
ENDBRANCH   5  30
TORSDOF 9
ENDMDL
