MODEL 1
REMARK VINA RESULT:     -10.3      0.000      0.000
REMARK  4 active torsions:
REMARK  status: ('A' for Active; 'I' for Inactive)
REMARK       I    between atoms: C_2  and  N_3 
REMARK    1  A    between atoms: C_2  and  C_7 
REMARK    2  A    between atoms: N_3  and  C_4 
REMARK    3  A    between atoms: C_10  and  N_11 
REMARK    4  A    between atoms: C_16  and  C_17 
ROOT
ATOM      1  N   UNL d   1     -28.416  22.083  23.822  0.00  0.00    -0.298 N 
ATOM      2  C   UNL d   1     -28.687  21.759  25.118  0.00  0.00     0.216 A 
ATOM      3  N   UNL d   1     -29.968  21.591  25.278  0.00  0.00    -0.241 NA
ATOM      4  C   UNL d   1     -30.607  21.797  24.098  0.00  0.00     0.086 A 
ATOM      5  C   UNL d   1     -31.949  21.750  23.708  0.00  0.00     0.050 A 
ATOM      6  C   UNL d   1     -32.290  22.011  22.412  0.00  0.00     0.050 A 
ATOM      7  C   UNL d   1     -31.319  22.325  21.473  0.00  0.00     0.018 A 
ATOM      8  C   UNL d   1     -29.988  22.373  21.833  0.00  0.00     0.033 A 
ATOM      9  C   UNL d   1     -29.623  22.115  23.146  0.00  0.00     0.070 A 
ENDROOT
BRANCH   1  10
ATOM     10  C   UNL d   1     -27.160  22.336  23.280  0.00  0.00     0.083 A 
ATOM     11  C   UNL d   1     -26.621  21.658  22.247  0.00  0.00     0.039 A 
ATOM     12  C   UNL d   1     -25.371  22.074  21.868  0.00  0.00     0.027 A 
ATOM     13  C   UNL d   1     -24.891  23.108  22.625  0.00  0.00     0.074 A 
ATOM     14  S   UNL d   1     -26.088  23.542  23.837  0.00  0.00    -0.067 SA
BRANCH  13  15
ATOM     15  C   UNL d   1     -23.588  23.750  22.453  0.00  0.00     0.258 C 
ATOM     16  O   UNL d   1     -22.812  23.336  21.613  0.00  0.00    -0.267 OA
ATOM     17  N   UNL d   1     -23.248  24.801  23.226  0.00  0.00    -0.352 N 
ATOM     18  H   UNL d   1     -23.867  25.131  23.896  0.00  0.00     0.163 HD
BRANCH  17  19
ATOM     19  C   UNL d   1     -21.943  25.443  23.053  0.00  0.00     0.084 A 
ATOM     20  C   UNL d   1     -21.525  26.484  24.096  0.00  0.00     0.027 A 
ATOM     21  C   UNL d   1     -20.851  25.110  24.073  0.00  0.00     0.027 A 
ENDBRANCH  17  19
ENDBRANCH  13  15
ENDBRANCH   1  10
BRANCH   6  22
ATOM     22  C   UNL d   1     -33.739  21.959  21.997  0.00  0.00     0.417 C 
ATOM     23  F   UNL d   1     -34.326  20.793  22.498  0.00  0.00    -0.166 F 
ATOM     24  F   UNL d   1     -34.409  23.076  22.509  0.00  0.00    -0.166 F 
ATOM     25  F   UNL d   1     -33.825  21.963  20.601  0.00  0.00    -0.166 F 
ENDBRANCH   6  22
TORSDOF 4
ENDMDL
