MODEL 1
REMARK VINA RESULT:      -9.5      0.000      0.000
REMARK  9 active torsions:
REMARK  status: ('A' for Active; 'I' for Inactive)
REMARK    1  A    between atoms: C_2  and  C_3 
REMARK    2  A    between atoms: C_3  and  C_4 
REMARK    3  A    between atoms: C_3  and  O_6 
REMARK    4  A    between atoms: O_6  and  C_7 
REMARK    5  A    between atoms: C_9  and  N_10 
REMARK       I    between atoms: N_10  and  C_11 
REMARK    6  A    between atoms: C_11  and  C_13 
REMARK    7  A    between atoms: C_16  and  O_18 
REMARK    8  A    between atoms: C_22  and  C_23 
REMARK    9  A    between atoms: C_27  and  O_28 
ROOT
ATOM      1  C   UNL d   1     -31.744  20.678  25.157  0.00  0.00     0.141 C 
ATOM      2  C   UNL d   1     -31.588  19.564  26.043  0.00  0.00     0.107 C 
ATOM      3  N   UNL d   1     -31.463  18.680  26.746  0.00  0.00    -0.191 NA
ATOM      4  C   UNL d   1     -32.964  20.951  24.615  0.00  0.00     0.065 C 
ATOM      5  C   UNL d   1     -34.149  20.081  24.948  0.00  0.00     0.077 C 
ENDROOT
BRANCH   1   6
ATOM      6  C   UNL d   1     -30.589  21.528  24.832  0.00  0.00     0.269 C 
ATOM      7  N   UNL d   1     -29.370  21.221  25.317  0.00  0.00    -0.320 N 
ATOM      8  H   UNL d   1     -29.264  20.472  25.925  0.00  0.00     0.169 HD
ATOM      9  O   UNL d   1     -30.734  22.507  24.126  0.00  0.00    -0.266 OA
BRANCH   7  10
ATOM     10  C   UNL d   1     -28.257  21.982  24.945  0.00  0.00     0.076 A 
ATOM     11  C   UNL d   1     -27.826  21.979  23.625  0.00  0.00     0.070 A 
ATOM     12  C   UNL d   1     -26.728  22.735  23.254  0.00  0.00     0.082 A 
ATOM     13  C   UNL d   1     -26.046  23.491  24.213  0.00  0.00     0.011 A 
ATOM     14  C   UNL d   1     -26.483  23.490  25.537  0.00  0.00     0.059 A 
ATOM     15  C   UNL d   1     -27.582  22.738  25.899  0.00  0.00     0.144 A 
ATOM     16  F   UNL d   1     -28.004  22.737  27.183  0.00  0.00    -0.204 F 
BRANCH  12  17
ATOM     17  O   UNL d   1     -26.310  22.738  21.962  0.00  0.00    -0.345 OA
BRANCH  17  18
ATOM     18  C   UNL d   1     -26.086  21.467  21.349  0.00  0.00     0.128 C 
BRANCH  18  19
ATOM     19  C   UNL d   1     -26.888  21.378  20.050  0.00  0.00     0.028 C 
ATOM     20  C   UNL d   1     -28.325  20.958  20.364  0.00  0.00     0.007 C 
ENDBRANCH  18  19
BRANCH  18  21
ATOM     21  C   UNL d   1     -24.596  21.305  21.040  0.00  0.00     0.028 C 
ATOM     22  C   UNL d   1     -24.180  22.332  19.984  0.00  0.00     0.007 C 
ENDBRANCH  18  21
ENDBRANCH  17  18
ENDBRANCH  12  17
BRANCH  13  23
ATOM     23  C   UNL d   1     -24.866  24.298  23.820  0.00  0.00    -0.021 A 
ATOM     24  C   UNL d   1     -23.674  23.668  23.468  0.00  0.00     0.049 A 
ATOM     25  C   UNL d   1     -22.574  24.428  23.107  0.00  0.00     0.069 A 
ATOM     26  C   UNL d   1     -22.661  25.813  23.092  0.00  0.00     0.037 A 
ATOM     27  C   UNL d   1     -23.845  26.439  23.438  0.00  0.00     0.004 A 
ATOM     28  C   UNL d   1     -24.946  25.690  23.799  0.00  0.00     0.012 A 
BRANCH  25  29
ATOM     29  O   UNL d   1     -21.408  23.817  22.769  0.00  0.00    -0.356 OA
ATOM     30  C   UNL d   1     -20.769  24.258  21.569  0.00  0.00     0.210 C 
ENDBRANCH  25  29
ENDBRANCH  13  23
ENDBRANCH   7  10
ENDBRANCH   1   6
BRANCH   4  31
ATOM     31  O   UNL d   1     -33.112  21.997  23.783  0.00  0.00    -0.364 OA
ATOM     32  H   UNL d   1     -33.754  22.673  24.038  0.00  0.00     0.217 HD
ENDBRANCH   4  31
TORSDOF 9
ENDMDL
