MODEL 1
REMARK VINA RESULT:     -12.7      0.000      0.000
REMARK  5 active torsions:
REMARK  status: ('A' for Active; 'I' for Inactive)
REMARK    1  A    between atoms: C_3  and  C_4 
REMARK    2  A    between atoms: C_7  and  C_8 
REMARK    3  A    between atoms: C_21  and  C_22 
REMARK    4  A    between atoms: C_28  and  C_29 
REMARK    5  A    between atoms: C_29  and  O_31 
ROOT
ATOM      1  C   UNL d   1     -27.515  22.159  25.703  0.00  0.00     0.052 C 
ATOM      2  C   UNL d   1     -28.389  22.215  24.477  0.00  0.00    -0.015 A 
ATOM      3  C   UNL d   1     -27.869  22.681  23.257  0.00  0.00     0.074 A 
ATOM      4  N   UNL d   1     -28.594  22.743  22.159  0.00  0.00    -0.245 NA
ATOM      5  C   UNL d   1     -29.873  22.373  22.131  0.00  0.00     0.086 A 
ATOM      6  C   UNL d   1     -30.641  22.442  20.955  0.00  0.00     0.149 A 
ATOM      7  N   UNL d   1     -31.898  22.068  20.970  0.00  0.00    -0.254 NA
ATOM      8  C   UNL d   1     -32.501  21.617  22.060  0.00  0.00     0.141 A 
ATOM      9  C   UNL d   1     -31.844  21.511  23.251  0.00  0.00     0.051 A 
ATOM     10  C   UNL d   1     -30.499  21.892  23.311  0.00  0.00     0.014 A 
ATOM     11  C   UNL d   1     -29.716  21.813  24.543  0.00  0.00     0.058 A 
ENDROOT
BRANCH   3  12
ATOM     12  C   UNL d   1     -26.452  23.112  23.203  0.00  0.00    -0.007 A 
ATOM     13  C   UNL d   1     -25.494  22.285  22.616  0.00  0.00     0.014 A 
ATOM     14  C   UNL d   1     -24.178  22.689  22.561  0.00  0.00     0.013 A 
ATOM     15  C   UNL d   1     -23.803  23.919  23.100  0.00  0.00    -0.023 A 
ATOM     16  C   UNL d   1     -24.761  24.745  23.686  0.00  0.00     0.013 A 
ATOM     17  C   UNL d   1     -26.077  24.345  23.737  0.00  0.00     0.014 A 
BRANCH  15  18
ATOM     18  C   UNL d   1     -22.385  24.350  23.046  0.00  0.00     0.015 A 
ATOM     19  C   UNL d   1     -21.848  24.873  21.869  0.00  0.00     0.136 A 
ATOM     20  N   UNL d   1     -20.587  25.257  21.821  0.00  0.00    -0.248 NA
ATOM     21 CL   UNL d   1     -22.848  25.022  20.458  0.00  0.00    -0.061 Cl
ATOM     22  C   UNL d   1     -19.790  25.164  22.867  0.00  0.00     0.118 A 
ATOM     23  C   UNL d   1     -20.248  24.655  24.069  0.00  0.00     0.020 A 
ATOM     24  C   UNL d   1     -21.564  24.239  24.172  0.00  0.00     0.017 A 
ENDBRANCH  15  18
ENDBRANCH   3  12
BRANCH  11  25
ATOM     25  C   UNL d   1     -30.310  21.322  25.803  0.00  0.00     0.177 C 
ATOM     26  O   UNL d   1     -30.980  22.068  26.490  0.00  0.00    -0.646 OA
BRANCH  25  27
ATOM     27  O   UNL d   1     -30.112  20.047  26.189  0.00  0.00    -0.773 OA
ATOM     28  H   UNL d   1     -30.618  19.736  26.953  0.00  0.00     0.167 HD
ENDBRANCH  25  27
ENDBRANCH  11  25
BRANCH   8  29
ATOM     29  C   UNL d   1     -33.950  21.209  21.983  0.00  0.00     0.434 C 
ATOM     30  F   UNL d   1     -34.728  22.318  21.631  0.00  0.00    -0.165 F 
ATOM     31  F   UNL d   1     -34.102  20.208  21.017  0.00  0.00    -0.165 F 
ATOM     32  F   UNL d   1     -34.366  20.724  23.227  0.00  0.00    -0.165 F 
ENDBRANCH   8  29
TORSDOF 5
ENDMDL
