MODEL 1
REMARK VINA RESULT:     -12.5      0.000      0.000
REMARK  6 active torsions:
REMARK  status: ('A' for Active; 'I' for Inactive)
REMARK    1  A    between atoms: C_5  and  C_6 
REMARK    2  A    between atoms: C_6  and  O_8 
REMARK    3  A    between atoms: C_10  and  C_11 
REMARK    4  A    between atoms: C_16  and  C_17 
REMARK    5  A    between atoms: C_20  and  C_21 
REMARK    6  A    between atoms: C_21  and  N_22 
ROOT
ATOM      1  C   UNL d   1     -26.916  22.714  23.011  0.00  0.00     0.058 A 
ATOM      2  C   UNL d   1     -26.148  21.993  22.095  0.00  0.00     0.170 A 
ATOM      3  F   UNL d   1     -26.699  20.969  21.408  0.00  0.00    -0.202 F 
ATOM      4  C   UNL d   1     -24.824  22.334  21.886  0.00  0.00     0.170 A 
ATOM      5  F   UNL d   1     -24.082  21.641  20.995  0.00  0.00    -0.202 F 
ATOM      6  C   UNL d   1     -24.254  23.389  22.599  0.00  0.00     0.058 A 
ATOM      7  C   UNL d   1     -25.021  24.105  23.520  0.00  0.00     0.170 A 
ATOM      8  F   UNL d   1     -24.469  25.126  24.210  0.00  0.00    -0.202 F 
ATOM      9  C   UNL d   1     -26.346  23.768  23.725  0.00  0.00     0.170 A 
ATOM     10  F   UNL d   1     -27.089  24.462  24.615  0.00  0.00    -0.202 F 
ENDROOT
BRANCH   1  11
ATOM     11  C   UNL d   1     -28.338  22.352  23.231  0.00  0.00    -0.016 A 
ATOM     12  C   UNL d   1     -28.734  21.807  24.452  0.00  0.00     0.033 A 
ATOM     13  C   UNL d   1     -30.064  21.464  24.668  0.00  0.00     0.069 A 
ATOM     14  C   UNL d   1     -31.012  21.673  23.642  0.00  0.00     0.102 A 
ATOM     15  N   UNL d   1     -32.338  21.450  23.549  0.00  0.00    -0.233 NA
ATOM     16  C   UNL d   1     -30.599  22.225  22.418  0.00  0.00     0.064 A 
ATOM     17  C   UNL d   1     -32.765  21.818  22.374  0.00  0.00     0.101 A 
ATOM     18  C   UNL d   1     -34.195  21.720  21.906  0.00  0.00     0.091 C 
ATOM     19  N   UNL d   1     -31.735  22.304  21.634  0.00  0.00    -0.343 N 
ATOM     20  H   UNL d   1     -31.787  22.642  20.727  0.00  0.00     0.167 HD
ATOM     21  C   UNL d   1     -29.270  22.560  22.217  0.00  0.00     0.044 A 
BRANCH  13  22
ATOM     22  C   UNL d   1     -30.481  20.887  25.958  0.00  0.00     0.178 C 
ATOM     23  O   UNL d   1     -30.471  21.573  26.961  0.00  0.00    -0.646 OA
BRANCH  22  24
ATOM     24  O   UNL d   1     -30.872  19.600  26.025  0.00  0.00    -0.773 OA
ATOM     25  H   UNL d   1     -31.499  19.296  25.354  0.00  0.00     0.167 HD
ENDBRANCH  22  24
ENDBRANCH  13  22
ENDBRANCH   1  11
BRANCH   6  26
ATOM     26  C   UNL d   1     -22.832  23.750  22.379  0.00  0.00    -0.020 A 
ATOM     27  C   UNL d   1     -21.849  23.278  23.246  0.00  0.00     0.013 A 
ATOM     28  C   UNL d   1     -20.527  23.617  23.036  0.00  0.00     0.010 A 
ATOM     29  C   UNL d   1     -20.179  24.423  21.966  0.00  0.00    -0.030 A 
ATOM     30  C   UNL d   1     -21.151  24.894  21.103  0.00  0.00     0.010 A 
ATOM     31  C   UNL d   1     -22.475  24.557  21.300  0.00  0.00     0.013 A 
BRANCH  29  32
ATOM     32  C   UNL d   1     -18.734  24.788  21.742  0.00  0.00     0.311 C 
BRANCH  32  33
ATOM     33  N   UNL d   1     -18.148  25.263  23.002  0.00  0.00     0.094 N 
ATOM     34  C   UNL d   1     -18.954  26.342  23.582  0.00  0.00     0.287 C 
ATOM     35  C   UNL d   1     -18.588  26.530  25.057  0.00  0.00     0.170 C 
ATOM     36  S   UNL d   1     -16.844  27.033  25.165  0.00  0.00     0.147 S 
ATOM     37  C   UNL d   1     -16.045  25.733  24.176  0.00  0.00     0.170 C 
ATOM     38  O   UNL d   1     -16.686  28.277  24.496  0.00  0.00    -0.228 OA
ATOM     39  O   UNL d   1     -16.417  26.909  26.515  0.00  0.00    -0.228 OA
ATOM     40  C   UNL d   1     -16.748  25.650  22.817  0.00  0.00     0.287 C 
ENDBRANCH  32  33
ENDBRANCH  29  32
ENDBRANCH   6  26
TORSDOF 6
ENDMDL
