MODEL 1
REMARK VINA RESULT:      -8.2      0.000      0.000
REMARK  9 active torsions:
REMARK  status: ('A' for Active; 'I' for Inactive)
REMARK    1  A    between atoms: C_2  and  N_3 
REMARK    2  A    between atoms: C_4  and  C_5 
REMARK    3  A    between atoms: C_5  and  O_6 
REMARK    4  A    between atoms: N_8  and  C_9 
REMARK    5  A    between atoms: C_11  and  O_12 
REMARK    6  A    between atoms: O_12  and  C_13 
REMARK    7  A    between atoms: C_13  and  C_15 
REMARK    8  A    between atoms: C_20  and  N_21 
REMARK    9  A    between atoms: N_21  and  C_22 
ROOT
ATOM      1  C   UNL d   1     -25.224  23.155  22.444  0.00  0.00     0.107 A 
ATOM      2  C   UNL d   1     -25.824  23.655  23.599  0.00  0.00     0.073 A 
ATOM      3  C   UNL d   1     -27.147  23.383  23.870  0.00  0.00     0.088 A 
ATOM      4  C   UNL d   1     -27.893  22.597  22.979  0.00  0.00     0.076 A 
ATOM      5  C   UNL d   1     -29.279  22.127  22.957  0.00  0.00     0.164 A 
ATOM      6  N   UNL d   1     -29.443  21.422  21.870  0.00  0.00    -0.153 NA
ATOM      7  N   UNL d   1     -28.247  21.376  21.144  0.00  0.00    -0.268 N 
ATOM      8  C   UNL d   1     -28.052  20.677  19.871  0.00  0.00     0.180 C 
ATOM      9  C   UNL d   1     -27.285  22.090  21.815  0.00  0.00     0.110 A 
ATOM     10  C   UNL d   1     -25.945  22.372  21.558  0.00  0.00     0.174 A 
ATOM     11  F   UNL d   1     -25.355  21.894  20.442  0.00  0.00    -0.201 F 
ENDROOT
BRANCH   1  12
ATOM     12  N   UNL d   1     -23.877  23.440  22.179  0.00  0.00    -0.178 N 
ATOM     13  N   UNL d   1     -23.357  23.965  20.989  0.00  0.00    -0.147 NA
ATOM     14  C   UNL d   1     -22.076  24.087  21.128  0.00  0.00     0.154 A 
ATOM     15  N   UNL d   1     -21.724  23.657  22.384  0.00  0.00    -0.283 N 
ATOM     16  C   UNL d   1     -22.842  23.264  23.027  0.00  0.00     0.351 A 
ATOM     17  O   UNL d   1     -22.905  22.828  24.163  0.00  0.00    -0.244 OA
BRANCH  14  18
ATOM     18  C   UNL d   1     -21.128  24.616  20.084  0.00  0.00     0.244 C 
BRANCH  18  19
ATOM     19  O   UNL d   1     -21.830  25.494  19.203  0.00  0.00    -0.393 OA
ATOM     20  H   UNL d   1     -21.554  26.419  19.267  0.00  0.00     0.209 HD
ENDBRANCH  18  19
ENDBRANCH  14  18
BRANCH  15  21
ATOM     21  C   UNL d   1     -20.366  23.634  22.933  0.00  0.00     0.131 C 
ATOM     22  C   UNL d   1     -20.113  24.920  23.722  0.00  0.00     0.027 C 
ENDBRANCH  15  21
ENDBRANCH   1  12
BRANCH   3  23
ATOM     23  O   UNL d   1     -27.728  23.872  24.998  0.00  0.00    -0.336 OA
BRANCH  23  24
ATOM     24  C   UNL d   1     -27.039  23.649  26.230  0.00  0.00     0.232 C 
ATOM     25  C   UNL d   1     -27.320  24.809  27.188  0.00  0.00     0.049 C 
BRANCH  24  26
ATOM     26  C   UNL d   1     -27.526  22.341  26.857  0.00  0.00     0.413 C 
ATOM     27  F   UNL d   1     -27.905  21.451  25.845  0.00  0.00    -0.168 F 
ATOM     28  F   UNL d   1     -26.495  21.774  27.613  0.00  0.00    -0.168 F 
ATOM     29  F   UNL d   1     -28.624  22.601  27.685  0.00  0.00    -0.168 F 
ENDBRANCH  24  26
ENDBRANCH  23  24
ENDBRANCH   3  23
BRANCH   5  30
ATOM     30  N   UNL d   1     -30.253  22.390  23.924  0.00  0.00    -0.335 N 
ATOM     31  H   UNL d   1     -30.084  23.047  24.617  0.00  0.00     0.168 HD
BRANCH  30  32
ATOM     32  C   UNL d   1     -31.469  21.700  23.896  0.00  0.00     0.094 A 
ATOM     33  C   UNL d   1     -31.788  20.806  24.911  0.00  0.00     0.063 A 
ATOM     34  C   UNL d   1     -32.994  20.131  24.881  0.00  0.00     0.026 A 
ATOM     35 CL   UNL d   1     -30.675  20.543  26.217  0.00  0.00    -0.082 Cl
ATOM     36  C   UNL d   1     -33.879  20.335  23.840  0.00  0.00     0.005 A 
ATOM     37  C   UNL d   1     -33.564  21.221  22.825  0.00  0.00     0.045 A 
ATOM     38  C   UNL d   1     -32.362  21.904  22.848  0.00  0.00     0.144 A 
ATOM     39  F   UNL d   1     -32.056  22.768  21.856  0.00  0.00    -0.204 F 
ENDBRANCH  30  32
ENDBRANCH   5  30
TORSDOF 9
ENDMDL
