MODEL 1
REMARK VINA RESULT:      -9.3      0.000      0.000
REMARK  14 active torsions:
REMARK  status: ('A' for Active; 'I' for Inactive)
REMARK    1  A    between atoms: C_2  and  C_17 
REMARK    2  A    between atoms: C_3  and  C_4 
REMARK    3  A    between atoms: C_4  and  C_5 
REMARK    4  A    between atoms: C_6  and  O_7 
REMARK    5  A    between atoms: C_12  and  C_13 
REMARK    6  A    between atoms: C_15  and  O_16 
REMARK    7  A    between atoms: C_17  and  C_18 
REMARK    8  A    between atoms: C_18  and  C_19 
REMARK    9  A    between atoms: C_20  and  C_22 
REMARK   10  A    between atoms: C_22  and  C_23 
REMARK   11  A    between atoms: C_23  and  C_24 
REMARK   12  A    between atoms: C_24  and  O_25 
REMARK   13  A    between atoms: C_24  and  C_26 
REMARK   14  A    between atoms: C_26  and  O_29 
ROOT
ATOM      1  C   UNL d   1     -24.119  22.901  19.372  0.00  0.00     0.043 C 
ATOM      2  C   UNL d   1     -24.131  22.642  20.857  0.00  0.00    -0.087 C 
ATOM      3  C   UNL d   1     -23.687  23.553  21.686  0.00  0.00    -0.020 C 
ENDROOT
BRANCH   2   4
ATOM      4  C   UNL d   1     -24.655  21.332  21.387  0.00  0.00     0.037 C 
BRANCH   4   5
ATOM      5  C   UNL d   1     -26.177  21.294  21.240  0.00  0.00     0.031 C 
BRANCH   5   6
ATOM      6  C   UNL d   1     -26.814  21.950  22.437  0.00  0.00    -0.024 C 
ATOM      7  C   UNL d   1     -28.088  22.259  22.416  0.00  0.00    -0.087 C 
ATOM      8  C   UNL d   1     -28.885  22.078  21.150  0.00  0.00     0.043 C 
BRANCH   7   9
ATOM      9  C   UNL d   1     -28.754  22.794  23.657  0.00  0.00     0.036 C 
BRANCH   9  10
ATOM     10  C   UNL d   1     -29.398  21.641  24.429  0.00  0.00     0.039 C 
BRANCH  10  11
ATOM     11  C   UNL d   1     -30.891  21.577  24.099  0.00  0.00     0.152 C 
BRANCH  11  12
ATOM     12  O   UNL d   1     -31.365  22.888  23.780  0.00  0.00    -0.393 OA
ATOM     13  H   UNL d   1     -32.077  22.900  23.125  0.00  0.00     0.210 HD
ENDBRANCH  11  12
BRANCH  11  14
ATOM     14  C   UNL d   1     -31.658  21.038  25.308  0.00  0.00     0.076 C 
ATOM     15  C   UNL d   1     -33.039  20.556  24.861  0.00  0.00     0.048 C 
ATOM     16  C   UNL d   1     -30.884  19.869  25.922  0.00  0.00     0.048 C 
BRANCH  14  17
ATOM     17  O   UNL d   1     -31.805  22.075  26.280  0.00  0.00    -0.388 OA
ATOM     18  H   UNL d   1     -30.967  22.425  26.611  0.00  0.00     0.210 HD
ENDBRANCH  14  17
ENDBRANCH  11  14
ENDBRANCH  10  11
ENDBRANCH   9  10
ENDBRANCH   7   9
ENDBRANCH   5   6
ENDBRANCH   4   5
ENDBRANCH   2   4
BRANCH   3  19
ATOM     19  C   UNL d   1     -23.042  24.807  21.151  0.00  0.00     0.072 C 
BRANCH  19  20
ATOM     20  C   UNL d   1     -22.077  25.350  22.174  0.00  0.00     0.014 A 
ATOM     21  C   UNL d   1     -20.713  25.229  21.971  0.00  0.00     0.088 A 
ATOM     22  C   UNL d   1     -19.820  25.733  22.933  0.00  0.00     0.043 A 
ATOM     23  C   UNL d   1     -20.320  26.356  24.085  0.00  0.00    -0.021 A 
ATOM     24  C   UNL d   1     -21.667  26.472  24.269  0.00  0.00     0.074 A 
ATOM     25  C   UNL d   1     -19.369  26.899  25.121  0.00  0.00     0.051 C 
ATOM     26  C   UNL d   1     -22.554  25.974  23.317  0.00  0.00     0.097 A 
ATOM     27 CL   UNL d   1     -22.280  27.246  25.698  0.00  0.00    -0.081 Cl
BRANCH  21  28
ATOM     28  O   UNL d   1     -20.241  24.624  20.852  0.00  0.00    -0.359 OA
ATOM     29  H   UNL d   1     -20.807  24.737  20.075  0.00  0.00     0.217 HD
ENDBRANCH  21  28
BRANCH  22  30
ATOM     30  C   UNL d   1     -18.374  25.607  22.733  0.00  0.00     0.273 C 
ATOM     31  O   UNL d   1     -17.919  24.610  22.213  0.00  0.00    -0.301 OA
ENDBRANCH  22  30
BRANCH  26  32
ATOM     32  O   UNL d   1     -23.891  26.096  23.511  0.00  0.00    -0.358 OA
ATOM     33  H   UNL d   1     -24.370  25.255  23.493  0.00  0.00     0.217 HD
ENDBRANCH  26  32
ENDBRANCH  19  20
ENDBRANCH   3  19
TORSDOF 14
ENDMDL
