MODEL 1
REMARK VINA RESULT:      -9.7      0.000      0.000
REMARK  7 active torsions:
REMARK  status: ('A' for Active; 'I' for Inactive)
REMARK    1  A    between atoms: C_2  and  C_3 
REMARK    2  A    between atoms: C_3  and  C_4 
REMARK    3  A    between atoms: C_4  and  O_6 
REMARK    4  A    between atoms: O_6  and  C_7 
REMARK    5  A    between atoms: C_9  and  N_10 
REMARK    6  A    between atoms: C_23  and  C_24 
REMARK       I    between atoms: C_24  and  N_26 
REMARK    7  A    between atoms: N_26  and  C_27 
REMARK       I    between atoms: N_30  and  C_31 
ROOT
ATOM      1  C   UNL d   1     -24.212  23.753  22.896  0.00  0.00     0.087 A 
ATOM      2  C   UNL d   1     -25.432  23.134  23.098  0.00  0.00     0.073 A 
ATOM      3  C   UNL d   1     -26.365  23.699  23.956  0.00  0.00     0.104 A 
ATOM      4  C   UNL d   1     -26.077  24.893  24.618  0.00  0.00     0.146 A 
ATOM      5  F   UNL d   1     -26.991  25.438  25.452  0.00  0.00    -0.204 F 
ATOM      6  C   UNL d   1     -24.866  25.517  24.424  0.00  0.00     0.064 A 
ATOM      7  C   UNL d   1     -23.920  24.954  23.561  0.00  0.00     0.068 A 
ENDROOT
BRANCH   7   8
ATOM      8  C   UNL d   1     -22.622  25.618  23.351  0.00  0.00     0.254 C 
ATOM      9  O   UNL d   1     -22.522  26.515  22.535  0.00  0.00    -0.268 OA
ATOM     10  N   UNL d   1     -21.545  25.233  24.064  0.00  0.00    -0.352 N 
ATOM     11  H   UNL d   1     -21.625  24.518  24.715  0.00  0.00     0.163 HD
BRANCH  10  12
ATOM     12  C   UNL d   1     -20.254  25.893  23.856  0.00  0.00     0.087 C 
ATOM     13  C   UNL d   1     -19.593  26.158  25.210  0.00  0.00     0.045 C 
ATOM     14  C   UNL d   1     -18.259  26.880  24.990  0.00  0.00     0.127 C 
ATOM     15  N   UNL d   1     -17.440  26.088  24.063  0.00  0.00    -0.352 N 
ATOM     16  C   UNL d   1     -18.014  25.699  22.768  0.00  0.00     0.127 C 
ATOM     17  C   UNL d   1     -16.186  25.722  24.396  0.00  0.00     0.215 C 
ATOM     18  C   UNL d   1     -19.350  24.991  23.013  0.00  0.00     0.045 C 
ATOM     19  C   UNL d   1     -15.651  26.032  25.770  0.00  0.00     0.117 C 
ATOM     20  O   UNL d   1     -15.488  25.145  23.589  0.00  0.00    -0.274 OA
ENDBRANCH  10  12
ENDBRANCH   7   8
BRANCH   1  21
ATOM     21  O   UNL d   1     -23.299  23.201  22.057  0.00  0.00    -0.345 OA
BRANCH  21  22
ATOM     22  C   UNL d   1     -23.419  23.517  20.670  0.00  0.00     0.124 C 
ATOM     23  C   UNL d   1     -22.078  24.039  20.147  0.00  0.00     0.040 C 
BRANCH  22  24
ATOM     24  C   UNL d   1     -23.814  22.260  19.892  0.00  0.00     0.032 C 
BRANCH  24  25
ATOM     25  C   UNL d   1     -25.281  22.364  19.468  0.00  0.00    -0.002 C 
ATOM     26  C   UNL d   1     -26.154  21.603  20.467  0.00  0.00     0.005 C 
ENDBRANCH  24  25
ENDBRANCH  22  24
ENDBRANCH  21  22
ENDBRANCH   1  21
BRANCH   3  27
ATOM     27  N   UNL d   1     -27.594  23.068  24.162  0.00  0.00    -0.178 N 
ATOM     28  C   UNL d   1     -27.966  22.379  25.263  0.00  0.00     0.351 A 
ATOM     29  N   UNL d   1     -29.225  21.959  25.067  0.00  0.00    -0.284 N 
ATOM     30  O   UNL d   1     -27.283  22.176  26.252  0.00  0.00    -0.244 OA
ATOM     31  C   UNL d   1     -29.628  22.363  23.811  0.00  0.00     0.131 A 
ATOM     32  C   UNL d   1     -30.077  21.221  26.007  0.00  0.00     0.135 C 
ATOM     33  N   UNL d   1     -28.673  23.037  23.266  0.00  0.00    -0.149 NA
ATOM     34  C   UNL d   1     -30.975  22.030  23.214  0.00  0.00     0.081 C 
ATOM     35  C   UNL d   1     -31.914  21.624  24.358  0.00  0.00     0.009 C 
ATOM     36  C   UNL d   1     -31.220  20.566  25.223  0.00  0.00     0.021 C 
ENDBRANCH   3  27
TORSDOF 7
ENDMDL
