MODEL 1
REMARK VINA RESULT:     -10.7      0.000      0.000
REMARK  6 active torsions:
REMARK  status: ('A' for Active; 'I' for Inactive)
REMARK    1  A    between atoms: O_2  and  C_3 
REMARK    2  A    between atoms: C_7  and  C_8 
REMARK    3  A    between atoms: C_11  and  N_12 
REMARK       I    between atoms: N_12  and  C_13 
REMARK    4  A    between atoms: C_13  and  C_15 
REMARK    5  A    between atoms: C_19  and  C_20 
REMARK    6  A    between atoms: C_20  and  O_22 
ROOT
ATOM      1  C   UNL d   1     -24.657  23.058  22.321  0.00  0.00    -0.023 A 
ATOM      2  C   UNL d   1     -25.309  22.091  21.558  0.00  0.00     0.014 A 
ATOM      3  C   UNL d   1     -26.568  21.661  21.919  0.00  0.00     0.034 A 
ATOM      4  C   UNL d   1     -27.183  22.182  23.050  0.00  0.00     0.074 A 
ATOM      5  C   UNL d   1     -26.533  23.143  23.819  0.00  0.00     0.143 A 
ATOM      6  F   UNL d   1     -27.132  23.648  24.919  0.00  0.00    -0.204 F 
ATOM      7  C   UNL d   1     -25.274  23.581  23.457  0.00  0.00     0.057 A 
ENDROOT
BRANCH   4   8
ATOM      8  N   UNL d   1     -28.458  21.739  23.418  0.00  0.00    -0.320 N 
ATOM      9  C   UNL d   1     -29.552  22.383  22.964  0.00  0.00     0.259 C 
ATOM     10  O   UNL d   1     -29.435  23.284  22.157  0.00  0.00    -0.267 OA
ATOM     11  H   UNL d   1     -28.555  20.969  23.999  0.00  0.00     0.169 HD
BRANCH   9  12
ATOM     12  C   UNL d   1     -30.887  21.994  23.448  0.00  0.00     0.073 A 
ATOM     13  C   UNL d   1     -32.122  21.846  22.644  0.00  0.00     0.077 A 
ATOM     14  C   UNL d   1     -33.088  21.474  23.529  0.00  0.00     0.160 A 
ATOM     15  O   UNL d   1     -32.549  21.392  24.749  0.00  0.00    -0.333 OA
ATOM     16  C   UNL d   1     -31.244  21.690  24.724  0.00  0.00     0.159 A 
BRANCH  13  17
ATOM     17  C   UNL d   1     -32.272  22.054  21.196  0.00  0.00     0.179 C 
ATOM     18  O   UNL d   1     -33.382  22.131  20.705  0.00  0.00    -0.646 OA
BRANCH  17  19
ATOM     19  O   UNL d   1     -31.181  22.159  20.413  0.00  0.00    -0.773 OA
ATOM     20  H   UNL d   1     -30.481  22.755  20.712  0.00  0.00     0.167 HD
ENDBRANCH  17  19
ENDBRANCH  13  17
ENDBRANCH   9  12
ENDBRANCH   4   8
BRANCH   1  21
ATOM     21  C   UNL d   1     -23.304  23.526  21.930  0.00  0.00    -0.023 A 
ATOM     22  C   UNL d   1     -23.080  24.025  20.648  0.00  0.00     0.012 A 
ATOM     23  C   UNL d   1     -21.821  24.463  20.289  0.00  0.00     0.004 A 
ATOM     24  C   UNL d   1     -20.778  24.400  21.194  0.00  0.00     0.037 A 
ATOM     25  C   UNL d   1     -20.992  23.900  22.471  0.00  0.00     0.069 A 
ATOM     26  C   UNL d   1     -22.253  23.462  22.842  0.00  0.00     0.049 A 
BRANCH  25  27
ATOM     27  O   UNL d   1     -19.963  23.838  23.357  0.00  0.00    -0.356 OA
ATOM     28  C   UNL d   1     -19.804  24.947  24.243  0.00  0.00     0.210 C 
ENDBRANCH  25  27
ENDBRANCH   1  21
TORSDOF 6
ENDMDL
