MODEL 1
REMARK VINA RESULT:     -11.9      0.000      0.000
REMARK  4 active torsions:
REMARK  status: ('A' for Active; 'I' for Inactive)
REMARK       I    between atoms: C_2  and  N_3 
REMARK    1  A    between atoms: C_2  and  C_20 
REMARK    2  A    between atoms: N_3  and  C_4 
REMARK    3  A    between atoms: C_9  and  N_10 
REMARK    4  A    between atoms: C_21  and  O_22 
ROOT
ATOM      1  C   UNL d   1     -26.638  22.694  23.330  0.00  0.00     0.119 A 
ATOM      2  C   UNL d   1     -26.159  23.872  23.891  0.00  0.00     0.186 A 
ATOM      3  F   UNL d   1     -26.865  24.492  24.862  0.00  0.00    -0.200 F 
ATOM      4  C   UNL d   1     -24.961  24.409  23.455  0.00  0.00     0.181 A 
ATOM      5  F   UNL d   1     -24.495  25.554  24.001  0.00  0.00    -0.201 F 
ATOM      6  C   UNL d   1     -24.235  23.771  22.457  0.00  0.00     0.095 A 
ATOM      7  C   UNL d   1     -24.717  22.597  21.891  0.00  0.00     0.181 A 
ATOM      8  F   UNL d   1     -24.014  21.979  20.916  0.00  0.00    -0.201 F 
ATOM      9  C   UNL d   1     -25.913  22.055  22.331  0.00  0.00     0.186 A 
ATOM     10  F   UNL d   1     -26.377  20.910  21.785  0.00  0.00    -0.200 F 
ENDROOT
BRANCH   1  11
ATOM     11  N   UNL d   1     -27.853  22.149  23.772  0.00  0.00    -0.317 N 
ATOM     12  C   UNL d   1     -29.007  22.493  23.165  0.00  0.00     0.263 C 
ATOM     13  O   UNL d   1     -28.986  23.203  22.176  0.00  0.00    -0.267 OA
ATOM     14  H   UNL d   1     -27.863  21.524  24.514  0.00  0.00     0.169 HD
BRANCH  12  15
ATOM     15  C   UNL d   1     -30.283  22.012  23.695  0.00  0.00     0.115 A 
ATOM     16  C   UNL d   1     -31.485  21.853  22.977  0.00  0.00     0.078 A 
ATOM     17  N   UNL d   1     -32.415  21.378  23.855  0.00  0.00    -0.242 N 
ATOM     18  C   UNL d   1     -31.831  22.081  21.638  0.00  0.00     0.033 A 
ATOM     19  N   UNL d   1     -31.804  21.252  25.108  0.00  0.00    -0.141 NA
ATOM     20  C   UNL d   1     -33.685  21.124  23.433  0.00  0.00     0.119 A 
ATOM     21  C   UNL d   1     -30.549  21.623  25.024  0.00  0.00     0.200 A 
ATOM     22  C   UNL d   1     -34.044  21.344  22.148  0.00  0.00     0.019 A 
ATOM     23  C   UNL d   1     -33.107  21.827  21.226  0.00  0.00     0.004 A 
BRANCH  21  24
ATOM     24  O   UNL d   1     -29.655  21.630  26.046  0.00  0.00    -0.343 OA
ATOM     25  H   UNL d   1     -29.758  20.895  26.665  0.00  0.00     0.219 HD
ENDBRANCH  21  24
ENDBRANCH  12  15
ENDBRANCH   1  11
BRANCH   6  26
ATOM     26  N   UNL d   1     -23.021  24.316  22.015  0.00  0.00    -0.274 NA
ATOM     27  C   UNL d   1     -21.879  23.553  22.540  0.00  0.00     0.122 C 
ATOM     28  C   UNL d   1     -20.577  24.214  22.085  0.00  0.00     0.182 C 
ATOM     29  O   UNL d   1     -20.564  24.296  20.657  0.00  0.00    -0.389 OA
ATOM     30  C   UNL d   1     -21.661  25.033  20.111  0.00  0.00     0.182 C 
ATOM     31  C   UNL d   1     -22.974  24.379  20.547  0.00  0.00     0.122 C 
ENDBRANCH   6  26
TORSDOF 4
ENDMDL
