MODEL 1
REMARK VINA RESULT:      -6.7      0.000      0.000
REMARK  4 active torsions:
REMARK  status: ('A' for Active; 'I' for Inactive)
REMARK    1  A    between atoms: O_2  and  C_3 
REMARK    2  A    between atoms: C_3  and  C_5 
REMARK    3  A    between atoms: C_5  and  C_8 
REMARK    4  A    between atoms: N_13  and  C_14 
ROOT
ATOM      1  C   UNL d   1     -26.087  23.970  24.061  0.00  0.00     0.153 C 
ATOM      2  C   UNL d   1     -25.399  25.199  23.808  0.00  0.00     0.108 C 
ATOM      3  N   UNL d   1     -24.852  26.175  23.607  0.00  0.00    -0.191 NA
ENDROOT
BRANCH   1   4
ATOM      4  C   UNL d   1     -26.636  23.716  25.344  0.00  0.00     0.306 C 
ATOM      5  O   UNL d   1     -27.065  24.636  26.015  0.00  0.00    -0.258 OA
BRANCH   4   6
ATOM      6  O   UNL d   1     -26.682  22.454  25.820  0.00  0.00    -0.322 OA
ATOM      7  C   UNL d   1     -27.885  22.054  26.480  0.00  0.00     0.213 C 
ENDBRANCH   4   6
ENDBRANCH   1   4
BRANCH   1   8
ATOM      8  C   UNL d   1     -26.218  23.021  23.045  0.00  0.00     0.107 A 
ATOM      9  N   UNL d   1     -25.213  22.559  22.255  0.00  0.00    -0.274 N 
ATOM     10  C   UNL d   1     -25.459  21.659  21.316  0.00  0.00     0.239 A 
ATOM     11  C   UNL d   1     -26.913  21.244  21.262  0.00  0.00     0.184 A 
ATOM     12  O   UNL d   1     -24.608  21.211  20.578  0.00  0.00    -0.272 OA
ATOM     13  S   UNL d   1     -27.681  22.242  22.582  0.00  0.00    -0.101 SA
BRANCH   9  14
ATOM     14  C   UNL d   1     -23.910  23.041  22.433  0.00  0.00     0.044 A 
ATOM     15  C   UNL d   1     -23.297  23.778  21.428  0.00  0.00     0.054 A 
ATOM     16  C   UNL d   1     -22.012  24.254  21.607  0.00  0.00     0.036 A 
ATOM     17  C   UNL d   1     -21.336  23.996  22.787  0.00  0.00     0.024 A 
ATOM     18 CL   UNL d   1     -21.245  25.176  20.352  0.00  0.00    -0.084 Cl
ATOM     19  C   UNL d   1     -21.944  23.262  23.789  0.00  0.00     0.004 A 
ATOM     20  C   UNL d   1     -23.229  22.786  23.616  0.00  0.00     0.030 A 
ENDBRANCH   9  14
ENDBRANCH   1   8
TORSDOF 4
ENDMDL
