MODEL 1
REMARK VINA RESULT:      -9.7      0.000      0.000
REMARK  7 active torsions:
REMARK  status: ('A' for Active; 'I' for Inactive)
REMARK    1  A    between atoms: C_2  and  C_3 
REMARK    2  A    between atoms: C_3  and  C_5 
REMARK    3  A    between atoms: N_7  and  C_8 
REMARK    4  A    between atoms: C_22  and  N_23 
REMARK    5  A    between atoms: C_25  and  C_26 
REMARK    6  A    between atoms: C_26  and  O_27 
REMARK    7  A    between atoms: N_28  and  C_29 
ROOT
ATOM      1  C   UNL d   1     -25.538  23.941  23.729  0.00  0.00    -0.027 A 
ATOM      2  C   UNL d   1     -24.265  24.127  23.344  0.00  0.00     0.109 A 
ATOM      3  N   UNL d   1     -23.759  23.582  22.198  0.00  0.00    -0.284 N 
ATOM      4  C   UNL d   1     -24.501  22.808  21.380  0.00  0.00     0.263 A 
ATOM      5  O   UNL d   1     -24.014  22.338  20.368  0.00  0.00    -0.267 OA
ATOM      6  C   UNL d   1     -25.904  22.552  21.714  0.00  0.00     0.046 A 
ATOM      7  C   UNL d   1     -26.727  21.774  20.897  0.00  0.00     0.062 A 
ATOM      8  C   UNL d   1     -28.031  21.565  21.250  0.00  0.00     0.146 A 
ATOM      9  F   UNL d   1     -28.824  20.811  20.458  0.00  0.00    -0.204 F 
ATOM     10  C   UNL d   1     -28.553  22.122  22.421  0.00  0.00     0.103 A 
ATOM     11  C   UNL d   1     -27.757  22.896  23.247  0.00  0.00     0.048 A 
ATOM     12  C   UNL d   1     -26.428  23.124  22.899  0.00  0.00    -0.010 A 
ENDROOT
BRANCH  10  13
ATOM     13  N   UNL d   1     -29.889  21.893  22.760  0.00  0.00    -0.178 N 
ATOM     14  C   UNL d   1     -30.963  22.089  21.965  0.00  0.00     0.351 A 
ATOM     15  N   UNL d   1     -32.057  21.745  22.673  0.00  0.00    -0.283 N 
ATOM     16  O   UNL d   1     -30.944  22.500  20.819  0.00  0.00    -0.244 OA
ATOM     17  C   UNL d   1     -31.655  21.340  23.922  0.00  0.00     0.154 A 
ATOM     18  N   UNL d   1     -30.364  21.420  23.992  0.00  0.00    -0.147 NA
BRANCH  15  19
ATOM     19  C   UNL d   1     -33.440  21.801  22.194  0.00  0.00     0.131 C 
ATOM     20  C   UNL d   1     -33.832  20.441  21.612  0.00  0.00     0.027 C 
ENDBRANCH  15  19
BRANCH  17  21
ATOM     21  C   UNL d   1     -32.565  20.876  25.030  0.00  0.00     0.244 C 
BRANCH  21  22
ATOM     22  O   UNL d   1     -31.959  21.157  26.293  0.00  0.00    -0.393 OA
ATOM     23  H   UNL d   1     -32.228  20.554  27.000  0.00  0.00     0.209 HD
ENDBRANCH  21  22
ENDBRANCH  17  21
ENDBRANCH  10  13
BRANCH   1  24
ATOM     24  C   UNL d   1     -26.048  24.564  25.003  0.00  0.00     0.016 C 
ATOM     25  C   UNL d   1     -26.310  26.053  24.772  0.00  0.00     0.015 C 
BRANCH  24  26
ATOM     26  C   UNL d   1     -27.347  23.876  25.423  0.00  0.00     0.004 C 
ATOM     27  C   UNL d   1     -27.048  22.835  26.503  0.00  0.00     0.006 C 
ENDBRANCH  24  26
ENDBRANCH   1  24
BRANCH   3  28
ATOM     28  C   UNL d   1     -22.420  23.826  21.866  0.00  0.00     0.102 A 
ATOM     29  C   UNL d   1     -21.402  23.288  22.643  0.00  0.00     0.064 A 
ATOM     30  C   UNL d   1     -20.081  23.530  22.313  0.00  0.00     0.026 A 
ATOM     31 CL   UNL d   1     -21.787  22.313  24.027  0.00  0.00    -0.082 Cl
ATOM     32  C   UNL d   1     -19.773  24.306  21.211  0.00  0.00     0.005 A 
ATOM     33  C   UNL d   1     -20.784  24.844  20.435  0.00  0.00     0.045 A 
ATOM     34  C   UNL d   1     -22.107  24.602  20.756  0.00  0.00     0.145 A 
ATOM     35  F   UNL d   1     -23.093  25.123  19.994  0.00  0.00    -0.204 F 
ENDBRANCH   3  28
TORSDOF 7
ENDMDL
