MODEL 1
REMARK VINA RESULT:     -10.7      0.000      0.000
REMARK  7 active torsions:
REMARK  status: ('A' for Active; 'I' for Inactive)
REMARK    1  A    between atoms: O_2  and  C_3 
REMARK    2  A    between atoms: C_7  and  C_8 
REMARK    3  A    between atoms: C_11  and  N_12 
REMARK       I    between atoms: N_12  and  C_13 
REMARK    4  A    between atoms: C_13  and  C_15 
REMARK    5  A    between atoms: C_16  and  C_17 
REMARK    6  A    between atoms: C_17  and  O_19 
REMARK    7  A    between atoms: C_22  and  O_23 
ROOT
ATOM      1  C   UNL d   1     -25.392  22.790  22.811  0.00  0.00    -0.023 A 
ATOM      2  C   UNL d   1     -26.147  21.954  21.989  0.00  0.00     0.014 A 
ATOM      3  C   UNL d   1     -27.393  21.528  22.398  0.00  0.00     0.034 A 
ATOM      4  C   UNL d   1     -27.897  21.930  23.629  0.00  0.00     0.074 A 
ATOM      5  C   UNL d   1     -27.148  22.768  24.449  0.00  0.00     0.143 A 
ATOM      6  F   UNL d   1     -27.642  23.163  25.643  0.00  0.00    -0.204 F 
ATOM      7  C   UNL d   1     -25.897  23.193  24.046  0.00  0.00     0.057 A 
ENDROOT
BRANCH   4   8
ATOM      8  N   UNL d   1     -29.161  21.497  24.041  0.00  0.00    -0.320 N 
ATOM      9  C   UNL d   1     -30.268  22.092  23.557  0.00  0.00     0.255 C 
ATOM     10  O   UNL d   1     -30.169  23.071  22.843  0.00  0.00    -0.268 OA
ATOM     11  H   UNL d   1     -29.240  20.768  24.676  0.00  0.00     0.169 HD
BRANCH   9  12
ATOM     12  C   UNL d   1     -31.602  21.559  23.897  0.00  0.00     0.051 C 
ATOM     13  C   UNL d   1     -32.840  21.729  23.047  0.00  0.00     0.158 C 
ATOM     14  C   UNL d   1     -33.832  20.664  23.574  0.00  0.00     0.042 C 
ATOM     15  C   UNL d   1     -33.345  20.472  25.029  0.00  0.00     0.049 C 
ATOM     16  C   UNL d   1     -31.885  20.859  25.005  0.00  0.00     0.030 C 
BRANCH  13  17
ATOM     17  O   UNL d   1     -32.536  21.486  21.672  0.00  0.00    -0.391 OA
ATOM     18  H   UNL d   1     -32.765  20.596  21.370  0.00  0.00     0.210 HD
ENDBRANCH  13  17
BRANCH  16  19
ATOM     19  C   UNL d   1     -30.907  20.517  26.054  0.00  0.00     0.172 C 
ATOM     20  O   UNL d   1     -30.478  21.381  26.790  0.00  0.00    -0.646 OA
BRANCH  19  21
ATOM     21  O   UNL d   1     -30.490  19.243  26.195  0.00  0.00    -0.773 OA
ATOM     22  H   UNL d   1     -29.776  18.947  25.613  0.00  0.00     0.167 HD
ENDBRANCH  19  21
ENDBRANCH  16  19
ENDBRANCH   9  12
ENDBRANCH   4   8
BRANCH   1  23
ATOM     23  C   UNL d   1     -24.052  23.249  22.371  0.00  0.00    -0.023 A 
ATOM     24  C   UNL d   1     -23.799  23.477  21.020  0.00  0.00     0.012 A 
ATOM     25  C   UNL d   1     -22.553  23.908  20.614  0.00  0.00     0.004 A 
ATOM     26  C   UNL d   1     -21.549  24.107  21.544  0.00  0.00     0.037 A 
ATOM     27  C   UNL d   1     -21.792  23.879  22.892  0.00  0.00     0.069 A 
ATOM     28  C   UNL d   1     -23.040  23.450  23.308  0.00  0.00     0.049 A 
BRANCH  27  29
ATOM     29  O   UNL d   1     -20.802  24.075  23.803  0.00  0.00    -0.356 OA
ATOM     30  C   UNL d   1     -19.690  24.873  23.391  0.00  0.00     0.210 C 
ENDBRANCH  27  29
ENDBRANCH   1  23
TORSDOF 7
ENDMDL
