MODEL 1
REMARK VINA RESULT:      -8.9      0.000      0.000
REMARK  4 active torsions:
REMARK  status: ('A' for Active; 'I' for Inactive)
REMARK    1  A    between atoms: C_2  and  O_3 
REMARK    2  A    between atoms: C_2  and  C_4 
REMARK    3  A    between atoms: C_9  and  N_10 
REMARK    4  A    between atoms: N_10  and  C_11 
ROOT
ATOM      1  C   UNL d   1     -32.347  21.037  24.112  0.00  0.00     0.064 A 
ATOM      2  C   UNL d   1     -33.432  20.196  23.851  0.00  0.00     0.020 A 
ATOM      3  C   UNL d   1     -34.104  20.292  22.652  0.00  0.00     0.001 A 
ATOM      4  C   UNL d   1     -33.707  21.219  21.700  0.00  0.00     0.002 A 
ATOM      5  C   UNL d   1     -32.643  22.060  21.944  0.00  0.00     0.030 A 
ATOM      6  C   UNL d   1     -31.950  21.976  23.145  0.00  0.00     0.049 A 
ENDROOT
BRANCH   6   7
ATOM      7  N   UNL d   1     -30.873  22.818  23.392  0.00  0.00    -0.355 N 
ATOM      8  H   UNL d   1     -31.008  23.646  23.879  0.00  0.00     0.166 HD
BRANCH   7   9
ATOM      9  C   UNL d   1     -29.598  22.475  22.934  0.00  0.00     0.032 A 
ATOM     10  C   UNL d   1     -29.414  22.091  21.612  0.00  0.00     0.031 A 
ATOM     11  C   UNL d   1     -28.153  21.753  21.161  0.00  0.00     0.026 A 
ATOM     12  C   UNL d   1     -27.073  21.797  22.025  0.00  0.00     0.034 A 
ATOM     13  C   UNL d   1     -27.254  22.179  23.343  0.00  0.00     0.026 A 
ATOM     14 CL   UNL d   1     -25.490  21.372  21.456  0.00  0.00    -0.084 Cl
ATOM     15  C   UNL d   1     -28.512  22.523  23.798  0.00  0.00     0.031 A 
ENDBRANCH   7   9
ENDBRANCH   6   7
BRANCH   1  16
ATOM     16  C   UNL d   1     -31.625  20.940  25.393  0.00  0.00     0.178 C 
ATOM     17  O   UNL d   1     -31.689  21.849  26.195  0.00  0.00    -0.646 OA
BRANCH  16  18
ATOM     18  O   UNL d   1     -30.893  19.843  25.671  0.00  0.00    -0.773 OA
ATOM     19  H   UNL d   1     -31.277  19.206  26.289  0.00  0.00     0.167 HD
ENDBRANCH  16  18
ENDBRANCH   1  16
TORSDOF 4
ENDMDL
