MODEL 1
REMARK VINA RESULT:     -10.3      0.000      0.000
REMARK  8 active torsions:
REMARK  status: ('A' for Active; 'I' for Inactive)
REMARK    1  A    between atoms: C_2  and  C_3 
REMARK    2  A    between atoms: C_3  and  C_4 
REMARK    3  A    between atoms: C_4  and  O_6 
REMARK    4  A    between atoms: O_6  and  C_7 
REMARK    5  A    between atoms: C_9  and  N_10 
REMARK    6  A    between atoms: N_14  and  C_15 
REMARK    7  A    between atoms: C_23  and  C_24 
REMARK       I    between atoms: C_24  and  N_26 
REMARK    8  A    between atoms: N_26  and  C_27 
ROOT
ATOM      1  C   UNL d   1     -26.383  23.129  23.353  0.00  0.00     0.087 A 
ATOM      2  C   UNL d   1     -27.756  22.981  23.448  0.00  0.00     0.073 A 
ATOM      3  C   UNL d   1     -28.430  22.165  22.551  0.00  0.00     0.104 A 
ATOM      4  C   UNL d   1     -27.729  21.486  21.554  0.00  0.00     0.146 A 
ATOM      5  F   UNL d   1     -28.391  20.688  20.689  0.00  0.00    -0.204 F 
ATOM      6  C   UNL d   1     -26.364  21.630  21.449  0.00  0.00     0.064 A 
ATOM      7  C   UNL d   1     -25.676  22.451  22.349  0.00  0.00     0.068 A 
ENDROOT
BRANCH   7   8
ATOM      8  C   UNL d   1     -24.215  22.604  22.242  0.00  0.00     0.259 C 
ATOM      9  O   UNL d   1     -23.503  21.619  22.198  0.00  0.00    -0.267 OA
ATOM     10  N   UNL d   1     -23.668  23.834  22.195  0.00  0.00    -0.318 N 
ATOM     11  H   UNL d   1     -24.227  24.619  22.311  0.00  0.00     0.169 HD
BRANCH  10  12
ATOM     12  C   UNL d   1     -22.292  23.982  21.978  0.00  0.00     0.113 A 
ATOM     13  C   UNL d   1     -21.398  23.814  23.030  0.00  0.00     0.146 A 
ATOM     14  C   UNL d   1     -20.040  23.961  22.811  0.00  0.00     0.045 A 
ATOM     15  F   UNL d   1     -21.857  23.506  24.263  0.00  0.00    -0.204 F 
ATOM     16  C   UNL d   1     -19.571  24.275  21.549  0.00  0.00     0.006 A 
ATOM     17  C   UNL d   1     -20.457  24.443  20.501  0.00  0.00     0.045 A 
ATOM     18  C   UNL d   1     -21.815  24.291  20.709  0.00  0.00     0.146 A 
ATOM     19  F   UNL d   1     -22.679  24.451  19.683  0.00  0.00    -0.204 F 
ENDBRANCH  10  12
ENDBRANCH   7   8
BRANCH   1  20
ATOM     20  O   UNL d   1     -25.723  23.928  24.229  0.00  0.00    -0.345 OA
BRANCH  20  21
ATOM     21  C   UNL d   1     -26.059  25.317  24.222  0.00  0.00     0.124 C 
ATOM     22  C   UNL d   1     -26.389  25.768  25.646  0.00  0.00     0.040 C 
BRANCH  21  23
ATOM     23  C   UNL d   1     -24.873  26.126  23.692  0.00  0.00     0.032 C 
BRANCH  23  24
ATOM     24  C   UNL d   1     -23.774  26.173  24.754  0.00  0.00    -0.002 C 
ATOM     25  C   UNL d   1     -22.584  26.975  24.221  0.00  0.00     0.005 C 
ENDBRANCH  23  24
ENDBRANCH  21  23
ENDBRANCH  20  21
ENDBRANCH   1  20
BRANCH   3  26
ATOM     26  N   UNL d   1     -29.816  22.017  22.649  0.00  0.00    -0.178 N 
ATOM     27  C   UNL d   1     -30.714  22.218  21.662  0.00  0.00     0.351 A 
ATOM     28  N   UNL d   1     -31.937  21.969  22.172  0.00  0.00    -0.280 N 
ATOM     29  O   UNL d   1     -30.465  22.559  20.520  0.00  0.00    -0.244 OA
ATOM     30  C   UNL d   1     -31.791  21.617  23.492  0.00  0.00     0.127 A 
ATOM     31  N   UNL d   1     -30.532  21.635  23.793  0.00  0.00    -0.149 NA
ATOM     32  C   UNL d   1     -32.913  21.264  24.434  0.00  0.00     0.093 C 
BRANCH  28  33
ATOM     33  C   UNL d   1     -33.204  22.065  21.445  0.00  0.00     0.088 C 
ATOM     34  C   UNL d   1     -34.198  22.896  22.257  0.00  0.00     0.032 C 
ATOM     35  C   UNL d   1     -33.773  20.662  21.223  0.00  0.00     0.032 C 
ENDBRANCH  28  33
ENDBRANCH   3  26
TORSDOF 8
ENDMDL
