MODEL 1
REMARK VINA RESULT:     -10.5      0.000      0.000
REMARK  5 active torsions:
REMARK  status: ('A' for Active; 'I' for Inactive)
REMARK    1  A    between atoms: C_2  and  C_4 
REMARK    2  A    between atoms: C_4  and  C_5 
REMARK    3  A    between atoms: C_8  and  C_9 
REMARK    4  A    between atoms: C_11  and  C_12 
REMARK    5  A    between atoms: C_12  and  O_14 
ROOT
ATOM      1  C   UNL d   1     -28.707  22.131  23.103  0.00  0.00     0.068 A 
ATOM      2  C   UNL d   1     -29.141  21.720  24.373  0.00  0.00     0.051 A 
ATOM      3  C   UNL d   1     -30.487  21.454  24.580  0.00  0.00     0.052 A 
ATOM      4  C   UNL d   1     -31.388  21.622  23.439  0.00  0.00     0.010 A 
ATOM      5  C   UNL d   1     -32.761  21.378  23.550  0.00  0.00     0.015 A 
ATOM      6  C   UNL d   1     -33.566  21.547  22.462  0.00  0.00     0.001 A 
ATOM      7  C   UNL d   1     -33.036  21.959  21.241  0.00  0.00     0.002 A 
ATOM      8  C   UNL d   1     -31.705  22.204  21.099  0.00  0.00     0.032 A 
ATOM      9  C   UNL d   1     -30.844  22.042  22.199  0.00  0.00     0.068 A 
ATOM     10  N   UNL d   1     -29.535  22.276  22.091  0.00  0.00    -0.247 NA
ENDROOT
BRANCH   1  11
ATOM     11  C   UNL d   1     -27.266  22.411  22.894  0.00  0.00    -0.007 A 
ATOM     12  C   UNL d   1     -26.598  23.305  23.729  0.00  0.00     0.014 A 
ATOM     13  C   UNL d   1     -25.257  23.561  23.530  0.00  0.00     0.008 A 
ATOM     14  C   UNL d   1     -24.574  22.930  22.505  0.00  0.00    -0.058 A 
ATOM     15  C   UNL d   1     -25.232  22.042  21.673  0.00  0.00     0.008 A 
ATOM     16  C   UNL d   1     -26.573  21.774  21.866  0.00  0.00     0.014 A 
BRANCH  14  17
ATOM     17  C   UNL d   1     -23.110  23.213  22.292  0.00  0.00     0.042 C 
BRANCH  17  18
ATOM     18  C   UNL d   1     -22.944  24.595  21.656  0.00  0.00    -0.019 C 
ATOM     19  C   UNL d   1     -22.000  25.440  22.514  0.00  0.00     0.010 C 
ATOM     20  C   UNL d   1     -22.358  24.443  20.252  0.00  0.00     0.010 C 
ENDBRANCH  17  18
ENDBRANCH  14  17
ENDBRANCH   1  11
BRANCH   3  21
ATOM     21  C   UNL d   1     -30.990  21.019  25.900  0.00  0.00     0.177 C 
ATOM     22  O   UNL d   1     -31.751  21.730  26.524  0.00  0.00    -0.646 OA
BRANCH  21  23
ATOM     23  O   UNL d   1     -30.605  19.833  26.410  0.00  0.00    -0.773 OA
ATOM     24  H   UNL d   1     -29.683  19.575  26.273  0.00  0.00     0.167 HD
ENDBRANCH  21  23
ENDBRANCH   3  21
TORSDOF 5
ENDMDL
