MODEL 1
REMARK VINA RESULT:     -10.5      0.000      0.000
REMARK  3 active torsions:
REMARK  status: ('A' for Active; 'I' for Inactive)
REMARK    1  A    between atoms: C_6  and  C_7 
REMARK       I    between atoms: C_7  and  N_9 
REMARK    2  A    between atoms: N_9  and  C_10 
REMARK    3  A    between atoms: N_18  and  C_19 
ROOT
ATOM      1  C   UNL d   1     -26.086  22.213  22.620  0.00  0.00     0.121 C 
ATOM      2  C   UNL d   1     -26.410  22.313  21.123  0.00  0.00     0.030 C 
ATOM      3  C   UNL d   1     -27.446  21.249  20.753  0.00  0.00     0.008 C 
ATOM      4  C   UNL d   1     -28.802  21.618  21.367  0.00  0.00     0.060 C 
ATOM      5  C   UNL d   1     -28.593  21.924  22.829  0.00  0.00     0.046 A 
ATOM      6  C   UNL d   1     -27.384  22.187  23.386  0.00  0.00     0.008 A 
ATOM      7  C   UNL d   1     -27.578  22.418  24.747  0.00  0.00     0.150 A 
ATOM      8  N   UNL d   1     -28.859  22.301  25.002  0.00  0.00    -0.179 NA
ATOM      9  N   UNL d   1     -29.520  21.990  23.802  0.00  0.00    -0.238 N 
ENDROOT
BRANCH   1  10
ATOM     10  N   UNL d   1     -25.291  23.372  23.032  0.00  0.00    -0.347 N 
ATOM     11  C   UNL d   1     -23.945  23.312  22.997  0.00  0.00     0.270 C 
ATOM     12  O   UNL d   1     -23.391  22.298  22.624  0.00  0.00    -0.266 OA
ATOM     13  H   UNL d   1     -25.734  24.182  23.329  0.00  0.00     0.163 HD
BRANCH  11  14
ATOM     14  C   UNL d   1     -23.141  24.485  23.414  0.00  0.00     0.124 A 
ATOM     15  N   UNL d   1     -23.675  25.699  23.369  0.00  0.00    -0.256 NA
ATOM     16  C   UNL d   1     -22.996  26.767  23.730  0.00  0.00     0.118 A 
ATOM     17  C   UNL d   1     -21.688  26.660  24.175  0.00  0.00     0.026 A 
ATOM     18  C   UNL d   1     -21.091  25.410  24.238  0.00  0.00    -0.058 A 
ATOM     19  C   UNL d   1     -19.668  25.259  24.711  0.00  0.00     0.048 C 
ATOM     20  C   UNL d   1     -21.830  24.304  23.851  0.00  0.00     0.044 A 
ENDBRANCH  11  14
ENDBRANCH   1  10
BRANCH   9  21
ATOM     21  C   UNL d   1     -30.897  21.785  23.648  0.00  0.00     0.058 A 
ATOM     22  C   UNL d   1     -31.599  21.040  24.587  0.00  0.00     0.031 A 
ATOM     23  C   UNL d   1     -32.958  20.840  24.431  0.00  0.00     0.002 A 
ATOM     24  C   UNL d   1     -33.617  21.379  23.342  0.00  0.00     0.000 A 
ATOM     25  C   UNL d   1     -32.920  22.121  22.406  0.00  0.00     0.002 A 
ATOM     26  C   UNL d   1     -31.564  22.329  22.558  0.00  0.00     0.031 A 
ENDBRANCH   9  21
TORSDOF 3
ENDMDL
