MODEL 1
REMARK VINA RESULT:     -11.5      0.000      0.000
REMARK  4 active torsions:
REMARK  status: ('A' for Active; 'I' for Inactive)
REMARK    1  A    between atoms: C_5  and  C_6 
REMARK    2  A    between atoms: C_6  and  O_8 
REMARK    3  A    between atoms: C_10  and  C_11 
REMARK    4  A    between atoms: C_14  and  C_15 
ROOT
ATOM      1  C   UNL d   1     -34.302  21.723  21.530  0.00  0.00     0.091 C 
ATOM      2  C   UNL d   1     -32.907  21.849  22.087  0.00  0.00     0.101 A 
ATOM      3  N   UNL d   1     -32.574  21.619  23.326  0.00  0.00    -0.233 NA
ATOM      4  C   UNL d   1     -31.252  21.823  23.489  0.00  0.00     0.102 A 
ATOM      5  C   UNL d   1     -30.383  21.723  24.598  0.00  0.00     0.069 A 
ATOM      6  C   UNL d   1     -29.031  22.004  24.440  0.00  0.00     0.033 A 
ATOM      7  C   UNL d   1     -28.536  22.392  23.196  0.00  0.00    -0.023 A 
ATOM      8  C   UNL d   1     -29.388  22.493  22.099  0.00  0.00     0.044 A 
ATOM      9  C   UNL d   1     -30.737  22.212  22.239  0.00  0.00     0.064 A 
ATOM     10  N   UNL d   1     -31.813  22.217  21.372  0.00  0.00    -0.343 N 
ATOM     11  H   UNL d   1     -31.791  22.443  20.428  0.00  0.00     0.167 HD
ENDROOT
BRANCH   7  12
ATOM     12  C   UNL d   1     -27.093  22.695  23.039  0.00  0.00    -0.026 A 
ATOM     13  C   UNL d   1     -26.329  21.986  22.112  0.00  0.00     0.013 A 
ATOM     14  C   UNL d   1     -24.990  22.272  21.961  0.00  0.00     0.013 A 
ATOM     15  C   UNL d   1     -24.396  23.261  22.745  0.00  0.00    -0.026 A 
ATOM     16  C   UNL d   1     -25.159  23.969  23.673  0.00  0.00     0.013 A 
ATOM     17  C   UNL d   1     -26.500  23.688  23.819  0.00  0.00     0.013 A 
BRANCH  15  18
ATOM     18  C   UNL d   1     -22.952  23.565  22.588  0.00  0.00    -0.026 A 
ATOM     19  C   UNL d   1     -22.447  23.933  21.342  0.00  0.00     0.012 A 
ATOM     20  C   UNL d   1     -21.103  24.214  21.201  0.00  0.00     0.001 A 
ATOM     21  C   UNL d   1     -20.259  24.133  22.294  0.00  0.00     0.000 A 
ATOM     22  C   UNL d   1     -20.754  23.768  23.532  0.00  0.00     0.001 A 
ATOM     23  C   UNL d   1     -22.097  23.488  23.686  0.00  0.00     0.012 A 
ENDBRANCH  15  18
ENDBRANCH   7  12
BRANCH   5  24
ATOM     24  C   UNL d   1     -30.907  21.317  25.914  0.00  0.00     0.178 C 
ATOM     25  O   UNL d   1     -30.228  21.464  26.910  0.00  0.00    -0.646 OA
BRANCH  24  26
ATOM     26  O   UNL d   1     -32.141  20.782  26.012  0.00  0.00    -0.773 OA
ATOM     27  H   UNL d   1     -32.746  20.935  25.273  0.00  0.00     0.167 HD
ENDBRANCH  24  26
ENDBRANCH   5  24
TORSDOF 4
ENDMDL
