MODEL 1
REMARK VINA RESULT:     -10.9      0.000      0.000
REMARK  6 active torsions:
REMARK  status: ('A' for Active; 'I' for Inactive)
REMARK    1  A    between atoms: C_2  and  O_3 
REMARK    2  A    between atoms: C_2  and  C_32 
REMARK    3  A    between atoms: O_3  and  C_4 
REMARK    4  A    between atoms: C_6  and  N_7 
REMARK    5  A    between atoms: C_20  and  C_21 
REMARK       I    between atoms: C_21  and  N_23 
REMARK    6  A    between atoms: N_23  and  C_24 
ROOT
ATOM      1  C   UNL d   1     -24.688  23.406  22.676  0.00  0.00     0.087 A 
ATOM      2  C   UNL d   1     -25.944  22.850  22.846  0.00  0.00     0.073 A 
ATOM      3  C   UNL d   1     -26.806  23.362  23.806  0.00  0.00     0.104 A 
ATOM      4  C   UNL d   1     -26.407  24.429  24.610  0.00  0.00     0.146 A 
ATOM      5  F   UNL d   1     -27.249  24.919  25.546  0.00  0.00    -0.204 F 
ATOM      6  C   UNL d   1     -25.157  24.986  24.453  0.00  0.00     0.064 A 
ATOM      7  C   UNL d   1     -24.285  24.479  23.484  0.00  0.00     0.068 A 
ENDROOT
BRANCH   7   8
ATOM      8  C   UNL d   1     -22.948  25.071  23.313  0.00  0.00     0.259 C 
ATOM      9  O   UNL d   1     -22.798  26.038  22.589  0.00  0.00    -0.267 OA
ATOM     10  N   UNL d   1     -21.889  24.543  23.957  0.00  0.00    -0.319 N 
ATOM     11  H   UNL d   1     -22.018  23.825  24.596  0.00  0.00     0.169 HD
BRANCH  10  12
ATOM     12  C   UNL d   1     -20.600  25.029  23.705  0.00  0.00     0.096 A 
ATOM     13  C   UNL d   1     -20.081  26.061  24.477  0.00  0.00     0.064 A 
ATOM     14  C   UNL d   1     -18.805  26.533  24.228  0.00  0.00     0.026 A 
ATOM     15 CL   UNL d   1     -21.031  26.752  25.755  0.00  0.00    -0.082 Cl
ATOM     16  C   UNL d   1     -18.050  25.988  23.207  0.00  0.00     0.005 A 
ATOM     17  C   UNL d   1     -18.565  24.964  22.432  0.00  0.00     0.045 A 
ATOM     18  C   UNL d   1     -19.838  24.482  22.678  0.00  0.00     0.144 A 
ATOM     19  F   UNL d   1     -20.340  23.482  21.922  0.00  0.00    -0.204 F 
ENDBRANCH  10  12
ENDBRANCH   7   8
BRANCH   1  20
ATOM     20  O   UNL d   1     -23.846  22.911  21.734  0.00  0.00    -0.336 OA
BRANCH  20  21
ATOM     21  C   UNL d   1     -24.005  23.401  20.400  0.00  0.00     0.232 C 
ATOM     22  C   UNL d   1     -22.647  23.862  19.863  0.00  0.00     0.049 C 
BRANCH  21  23
ATOM     23  C   UNL d   1     -24.554  22.286  19.508  0.00  0.00     0.413 C 
ATOM     24  F   UNL d   1     -23.760  21.144  19.649  0.00  0.00    -0.168 F 
ATOM     25  F   UNL d   1     -25.868  21.991  19.888  0.00  0.00    -0.168 F 
ATOM     26  F   UNL d   1     -24.538  22.705  18.174  0.00  0.00    -0.168 F 
ENDBRANCH  21  23
ENDBRANCH  20  21
ENDBRANCH   1  20
BRANCH   3  27
ATOM     27  N   UNL d   1     -28.075  22.802  23.971  0.00  0.00    -0.178 N 
ATOM     28  C   UNL d   1     -28.478  22.025  25.000  0.00  0.00     0.351 A 
ATOM     29  N   UNL d   1     -29.770  21.722  24.791  0.00  0.00    -0.284 N 
ATOM     30  O   UNL d   1     -27.797  21.664  25.942  0.00  0.00    -0.244 OA
ATOM     31  C   UNL d   1     -30.161  22.289  23.595  0.00  0.00     0.131 A 
ATOM     32  C   UNL d   1     -30.659  20.948  25.665  0.00  0.00     0.135 C 
ATOM     33  N   UNL d   1     -29.164  22.940  23.098  0.00  0.00    -0.149 NA
ATOM     34  C   UNL d   1     -31.543  22.133  23.003  0.00  0.00     0.081 C 
ATOM     35  C   UNL d   1     -32.488  21.677  24.122  0.00  0.00     0.009 C 
ATOM     36  C   UNL d   1     -31.865  20.477  24.844  0.00  0.00     0.021 C 
ENDBRANCH   3  27
TORSDOF 6
ENDMDL
