MODEL 1
REMARK VINA RESULT:      -9.0      0.000      0.000
REMARK  5 active torsions:
REMARK  status: ('A' for Active; 'I' for Inactive)
REMARK    1  A    between atoms: C_7  and  N_8 
REMARK    2  A    between atoms: C_10  and  C_11 
REMARK    3  A    between atoms: C_16  and  C_17 
REMARK    4  A    between atoms: C_19  and  C_20 
REMARK    5  A    between atoms: C_20  and  O_22 
ROOT
ATOM      1  N   UNL d   1     -17.512  27.075  24.949  0.00  0.00    -0.288 N 
ATOM      2  C   UNL d   1     -18.488  27.186  25.902  0.00  0.00     0.109 A 
ATOM      3  C   UNL d   1     -19.707  26.644  25.748  0.00  0.00    -0.027 A 
ATOM      4  C   UNL d   1     -20.016  25.905  24.522  0.00  0.00    -0.011 A 
ATOM      5  C   UNL d   1     -21.266  25.326  24.308  0.00  0.00     0.031 A 
ATOM      6  C   UNL d   1     -21.501  24.632  23.128  0.00  0.00     0.053 A 
ATOM      7  C   UNL d   1     -20.497  24.522  22.157  0.00  0.00     0.131 A 
ATOM      8  F   UNL d   1     -20.745  23.847  21.012  0.00  0.00    -0.205 F 
ATOM      9  C   UNL d   1     -19.270  25.090  22.354  0.00  0.00     0.061 A 
ATOM     10  C   UNL d   1     -19.009  25.787  23.535  0.00  0.00     0.046 A 
ATOM     11  C   UNL d   1     -17.709  26.414  23.792  0.00  0.00     0.263 A 
ATOM     12  O   UNL d   1     -16.815  26.336  22.969  0.00  0.00    -0.267 OA
ENDROOT
BRANCH   6  13
ATOM     13  C   UNL d   1     -22.826  24.007  22.893  0.00  0.00     0.184 A 
ATOM     14  N   UNL d   1     -23.878  24.124  23.673  0.00  0.00    -0.150 NA
ATOM     15  N   UNL d   1     -24.909  23.382  23.075  0.00  0.00    -0.256 N 
ATOM     16  C   UNL d   1     -24.394  22.849  21.951  0.00  0.00     0.153 A 
ATOM     17  C   UNL d   1     -26.276  23.217  23.577  0.00  0.00     0.181 C 
ATOM     18  N   UNL d   1     -23.149  23.231  21.850  0.00  0.00    -0.209 NA
BRANCH  16  19
ATOM     19  C   UNL d   1     -25.129  21.967  20.975  0.00  0.00     0.185 C 
ATOM     20  C   UNL d   1     -24.558  22.174  19.571  0.00  0.00     0.048 C 
BRANCH  19  21
ATOM     21  O   UNL d   1     -24.972  20.600  21.357  0.00  0.00    -0.388 OA
ATOM     22  H   UNL d   1     -24.296  20.454  22.032  0.00  0.00     0.210 HD
ENDBRANCH  19  21
ENDBRANCH  16  19
ENDBRANCH   6  13
BRANCH   3  23
ATOM     23  C   UNL d   1     -20.746  26.794  26.828  0.00  0.00     0.013 C 
ATOM     24  C   UNL d   1     -20.091  26.598  28.198  0.00  0.00     0.015 C 
ATOM     25  C   UNL d   1     -21.362  28.193  26.753  0.00  0.00     0.015 C 
ENDBRANCH   3  23
BRANCH   1  26
ATOM     26  C   UNL d   1     -16.266  27.668  25.186  0.00  0.00     0.048 A 
ATOM     27  C   UNL d   1     -15.264  26.951  25.826  0.00  0.00    -0.035 A 
ATOM     28  C   UNL d   1     -15.516  25.531  26.266  0.00  0.00     0.050 C 
ATOM     29  C   UNL d   1     -14.037  27.539  26.058  0.00  0.00     0.009 A 
ATOM     30  C   UNL d   1     -13.805  28.841  25.654  0.00  0.00     0.001 A 
ATOM     31  C   UNL d   1     -14.801  29.558  25.016  0.00  0.00     0.002 A 
ATOM     32  C   UNL d   1     -16.028  28.974  24.776  0.00  0.00     0.030 A 
ENDBRANCH   1  26
TORSDOF 5
ENDMDL
