MODEL 1
REMARK VINA RESULT:     -10.2      0.000      0.000
REMARK  5 active torsions:
REMARK  status: ('A' for Active; 'I' for Inactive)
REMARK    1  A    between atoms: C_3  and  N_4 
REMARK    2  A    between atoms: N_4  and  C_5 
REMARK    3  A    between atoms: C_18  and  C_19 
REMARK    4  A    between atoms: C_19  and  N_20 
REMARK       I    between atoms: N_23  and  C_24 
REMARK    5  A    between atoms: C_24  and  C_26 
ROOT
ATOM      1  C   UNL d   1     -22.380  27.336  24.575  0.00  0.00     0.051 C 
ATOM      2  C   UNL d   1     -21.157  26.541  24.199  0.00  0.00    -0.025 A 
ATOM      3  C   UNL d   1     -20.010  26.618  24.980  0.00  0.00     0.040 A 
ATOM      4  C   UNL d   1     -18.885  25.884  24.630  0.00  0.00     0.032 A 
ATOM      5  C   UNL d   1     -18.909  25.076  23.511  0.00  0.00     0.026 A 
ATOM      6  C   UNL d   1     -20.049  25.005  22.731  0.00  0.00     0.042 A 
ATOM      7 CL   UNL d   1     -20.074  23.994  21.321  0.00  0.00    -0.084 Cl
ATOM      8  C   UNL d   1     -21.173  25.736  23.077  0.00  0.00    -0.000 A 
ENDROOT
BRANCH   8   9
ATOM      9  C   UNL d   1     -22.415  25.653  22.228  0.00  0.00     0.313 C 
BRANCH   9  10
ATOM     10  N   UNL d   1     -23.255  24.542  22.697  0.00  0.00     0.095 N 
ATOM     11  C   UNL d   1     -23.511  23.582  21.615  0.00  0.00     0.292 C 
ATOM     12  C   UNL d   1     -24.232  22.356  22.184  0.00  0.00     0.156 C 
ATOM     13  N   UNL d   1     -25.429  22.812  22.907  0.00  0.00    -0.348 N 
ATOM     14  C   UNL d   1     -25.272  23.872  23.913  0.00  0.00     0.156 C 
ATOM     15  C   UNL d   1     -26.638  22.271  22.655  0.00  0.00     0.224 C 
ATOM     16  C   UNL d   1     -24.510  25.040  23.276  0.00  0.00     0.292 C 
ATOM     17  O   UNL d   1     -26.748  21.396  21.822  0.00  0.00    -0.273 OA
BRANCH  15  18
ATOM     18  C   UNL d   1     -27.851  22.752  23.407  0.00  0.00     0.078 C 
ATOM     19  C   UNL d   1     -29.024  22.966  22.436  0.00  0.00     0.014 C 
ATOM     20  C   UNL d   1     -30.151  22.015  22.888  0.00  0.00     0.001 C 
ATOM     21  C   UNL d   1     -29.853  21.759  24.386  0.00  0.00     0.001 C 
ATOM     22  C   UNL d   1     -28.306  21.679  24.417  0.00  0.00     0.014 C 
ENDBRANCH  15  18
ENDBRANCH   9  10
ENDBRANCH   8   9
BRANCH   3  23
ATOM     23  N   UNL d   1     -19.991  27.432  26.117  0.00  0.00    -0.335 N 
ATOM     24  H   UNL d   1     -20.200  28.376  26.043  0.00  0.00     0.168 HD
BRANCH  23  25
ATOM     25  C   UNL d   1     -19.671  26.891  27.347  0.00  0.00     0.172 A 
ATOM     26  S   UNL d   1     -18.075  26.943  28.083  0.00  0.00    -0.050 SA
ATOM     27  C   UNL d   1     -18.680  26.070  29.489  0.00  0.00     0.037 A 
ATOM     28  C   UNL d   1     -20.038  25.800  29.291  0.00  0.00     0.076 A 
ATOM     29  C   UNL d   1     -18.040  25.651  30.652  0.00  0.00     0.021 A 
ATOM     30  N   UNL d   1     -20.500  26.273  28.117  0.00  0.00    -0.223 NA
ATOM     31  C   UNL d   1     -20.735  25.098  30.297  0.00  0.00     0.033 A 
ATOM     32  C   UNL d   1     -20.088  24.692  31.437  0.00  0.00     0.002 A 
ATOM     33  C   UNL d   1     -18.740  24.966  31.621  0.00  0.00     0.002 A 
ENDBRANCH  23  25
ENDBRANCH   3  23
TORSDOF 5
ENDMDL
