MODEL 1
REMARK VINA RESULT:     -11.3      0.000      0.000
REMARK  6 active torsions:
REMARK  status: ('A' for Active; 'I' for Inactive)
REMARK    1  A    between atoms: C_8  and  N_9 
REMARK       I    between atoms: N_9  and  C_10 
REMARK    2  A    between atoms: C_10  and  C_12 
REMARK    3  A    between atoms: C_16  and  N_17 
REMARK    4  A    between atoms: C_28  and  O_29 
REMARK    5  A    between atoms: O_29  and  C_30 
REMARK    6  A    between atoms: C_30  and  C_32 
ROOT
ATOM      1  C   UNL d   1     -24.255  24.454  23.435  0.00  0.00     0.068 A 
ATOM      2  C   UNL d   1     -25.120  24.974  24.405  0.00  0.00     0.064 A 
ATOM      3  C   UNL d   1     -26.371  24.426  24.575  0.00  0.00     0.146 A 
ATOM      4  F   UNL d   1     -27.205  24.928  25.512  0.00  0.00    -0.204 F 
ATOM      5  C   UNL d   1     -26.780  23.352  23.784  0.00  0.00     0.104 A 
ATOM      6  C   UNL d   1     -25.929  22.830  22.819  0.00  0.00     0.073 A 
ATOM      7  C   UNL d   1     -24.669  23.374  22.640  0.00  0.00     0.087 A 
ENDROOT
BRANCH   1   8
ATOM      8  C   UNL d   1     -22.917  25.038  23.250  0.00  0.00     0.259 C 
ATOM      9  N   UNL d   1     -21.847  24.473  23.843  0.00  0.00    -0.320 N 
ATOM     10  H   UNL d   1     -21.944  23.635  24.322  0.00  0.00     0.169 HD
ATOM     11  O   UNL d   1     -22.776  26.031  22.561  0.00  0.00    -0.267 OA
BRANCH   9  12
ATOM     12  C   UNL d   1     -20.595  25.094  23.768  0.00  0.00     0.080 A 
ATOM     13  C   UNL d   1     -20.246  26.069  24.693  0.00  0.00    -0.032 A 
ATOM     14  C   UNL d   1     -21.214  26.460  25.780  0.00  0.00     0.050 C 
ATOM     15  C   UNL d   1     -19.007  26.678  24.619  0.00  0.00     0.009 A 
ATOM     16  C   UNL d   1     -18.119  26.325  23.620  0.00  0.00     0.004 A 
ATOM     17  C   UNL d   1     -18.465  25.359  22.692  0.00  0.00     0.045 A 
ATOM     18  C   UNL d   1     -19.700  24.742  22.763  0.00  0.00     0.143 A 
ATOM     19  F   UNL d   1     -20.038  23.797  21.858  0.00  0.00    -0.204 F 
ENDBRANCH   9  12
ENDBRANCH   1   8
BRANCH   7  20
ATOM     20  O   UNL d   1     -23.836  22.865  21.698  0.00  0.00    -0.336 OA
BRANCH  20  21
ATOM     21  C   UNL d   1     -23.946  23.400  20.378  0.00  0.00     0.232 C 
ATOM     22  C   UNL d   1     -22.562  23.823  19.882  0.00  0.00     0.049 C 
BRANCH  21  23
ATOM     23  C   UNL d   1     -24.519  22.335  19.441  0.00  0.00     0.413 C 
ATOM     24  F   UNL d   1     -23.698  21.203  19.465  0.00  0.00    -0.168 F 
ATOM     25  F   UNL d   1     -25.806  21.986  19.865  0.00  0.00    -0.168 F 
ATOM     26  F   UNL d   1     -24.578  22.841  18.138  0.00  0.00    -0.168 F 
ENDBRANCH  21  23
ENDBRANCH  20  21
ENDBRANCH   7  20
BRANCH   5  27
ATOM     27  N   UNL d   1     -28.050  22.800  23.963  0.00  0.00    -0.178 N 
ATOM     28  C   UNL d   1     -28.451  22.032  24.999  0.00  0.00     0.351 A 
ATOM     29  N   UNL d   1     -29.746  21.735  24.800  0.00  0.00    -0.284 N 
ATOM     30  O   UNL d   1     -27.766  21.677  25.941  0.00  0.00    -0.244 OA
ATOM     31  C   UNL d   1     -30.142  22.296  23.604  0.00  0.00     0.131 A 
ATOM     32  C   UNL d   1     -30.632  20.971  25.686  0.00  0.00     0.135 C 
ATOM     33  N   UNL d   1     -29.149  22.946  23.100  0.00  0.00    -0.149 NA
ATOM     34  C   UNL d   1     -31.525  22.132  23.018  0.00  0.00     0.081 C 
ATOM     35  C   UNL d   1     -32.467  21.684  24.143  0.00  0.00     0.009 C 
ATOM     36  C   UNL d   1     -31.842  20.493  24.874  0.00  0.00     0.021 C 
ENDBRANCH   5  27
TORSDOF 6
ENDMDL
