MODEL 1
REMARK VINA RESULT:      -8.8      0.000      0.000
REMARK  5 active torsions:
REMARK  status: ('A' for Active; 'I' for Inactive)
REMARK    1  A    between atoms: C_8  and  N_9 
REMARK    2  A    between atoms: C_11  and  C_12 
REMARK    3  A    between atoms: C_17  and  C_18 
REMARK    4  A    between atoms: C_20  and  C_21 
REMARK    5  A    between atoms: C_21  and  O_24 
ROOT
ATOM      1  N   UNL d   1     -23.737  23.685  22.305  0.00  0.00    -0.285 N 
ATOM      2  C   UNL d   1     -24.356  24.450  23.255  0.00  0.00     0.109 A 
ATOM      3  C   UNL d   1     -25.660  24.318  23.547  0.00  0.00    -0.027 A 
ATOM      4  C   UNL d   1     -26.460  23.324  22.829  0.00  0.00    -0.011 A 
ATOM      5  C   UNL d   1     -27.819  23.149  23.086  0.00  0.00     0.031 A 
ATOM      6  C   UNL d   1     -28.528  22.187  22.378  0.00  0.00     0.053 A 
ATOM      7  C   UNL d   1     -27.888  21.407  21.405  0.00  0.00     0.131 A 
ATOM      8  F   UNL d   1     -28.593  20.479  20.722  0.00  0.00    -0.205 F 
ATOM      9  C   UNL d   1     -26.557  21.574  21.141  0.00  0.00     0.061 A 
ATOM     10  C   UNL d   1     -25.825  22.531  21.845  0.00  0.00     0.046 A 
ATOM     11  C   UNL d   1     -24.395  22.747  21.596  0.00  0.00     0.263 A 
ATOM     12  O   UNL d   1     -23.809  22.085  20.758  0.00  0.00    -0.267 OA
ENDROOT
BRANCH   6  13
ATOM     13  C   UNL d   1     -29.972  21.989  22.648  0.00  0.00     0.184 A 
ATOM     14  N   UNL d   1     -30.498  21.671  23.811  0.00  0.00    -0.150 NA
ATOM     15  N   UNL d   1     -31.887  21.586  23.617  0.00  0.00    -0.256 N 
ATOM     16  C   UNL d   1     -32.108  21.865  22.319  0.00  0.00     0.158 A 
ATOM     17  C   UNL d   1     -32.894  21.257  24.627  0.00  0.00     0.181 C 
ATOM     18  N   UNL d   1     -30.958  22.100  21.747  0.00  0.00    -0.208 NA
BRANCH  16  19
ATOM     19  C   UNL d   1     -33.454  21.894  21.641  0.00  0.00     0.112 C 
ATOM     20  C   UNL d   1     -34.366  22.892  22.358  0.00  0.00     0.054 C 
ATOM     21  C   UNL d   1     -34.083  20.500  21.695  0.00  0.00     0.054 C 
BRANCH  19  22
ATOM     22  O   UNL d   1     -33.292  22.292  20.278  0.00  0.00    -0.383 OA
ATOM     23  H   UNL d   1     -34.037  22.799  19.925  0.00  0.00     0.211 HD
ENDBRANCH  19  22
ENDBRANCH  16  19
ENDBRANCH   6  13
BRANCH   3  24
ATOM     24  C   UNL d   1     -26.293  25.185  24.604  0.00  0.00     0.013 C 
ATOM     25  C   UNL d   1     -26.767  24.311  25.766  0.00  0.00     0.015 C 
ATOM     26  C   UNL d   1     -25.268  26.199  25.113  0.00  0.00     0.015 C 
ENDBRANCH   3  24
BRANCH   1  27
ATOM     27  C   UNL d   1     -22.373  23.883  22.062  0.00  0.00     0.088 A 
ATOM     28  C   UNL d   1     -21.951  24.601  20.945  0.00  0.00    -0.030 A 
ATOM     29  C   UNL d   1     -22.951  25.179  19.977  0.00  0.00     0.050 C 
ATOM     30  C   UNL d   1     -20.590  24.776  20.749  0.00  0.00     0.028 A 
ATOM     31  C   UNL d   1     -19.702  24.226  21.654  0.00  0.00     0.119 A 
ATOM     32  N   UNL d   1     -20.131  23.546  22.700  0.00  0.00    -0.246 NA
ATOM     33  C   UNL d   1     -21.417  23.361  22.926  0.00  0.00     0.153 A 
ATOM     34 CL   UNL d   1     -21.923  22.457  24.319  0.00  0.00    -0.060 Cl
ENDBRANCH   1  27
TORSDOF 5
ENDMDL
