MODEL 1
REMARK VINA RESULT:     -10.9      0.000      0.000
REMARK  7 active torsions:
REMARK  status: ('A' for Active; 'I' for Inactive)
REMARK    1  A    between atoms: C_2  and  O_3 
REMARK    2  A    between atoms: C_2  and  C_34 
REMARK    3  A    between atoms: O_3  and  C_4 
REMARK    4  A    between atoms: C_6  and  N_7 
REMARK    5  A    between atoms: C_20  and  C_21 
REMARK       I    between atoms: C_21  and  N_23 
REMARK    6  A    between atoms: N_23  and  C_24 
REMARK    7  A    between atoms: C_29  and  C_30 
ROOT
ATOM      1  C   UNL d   1     -24.499  23.502  22.888  0.00  0.00     0.087 A 
ATOM      2  C   UNL d   1     -25.740  22.919  23.077  0.00  0.00     0.073 A 
ATOM      3  C   UNL d   1     -26.641  23.476  23.974  0.00  0.00     0.104 A 
ATOM      4  C   UNL d   1     -26.297  24.619  24.695  0.00  0.00     0.146 A 
ATOM      5  F   UNL d   1     -27.176  25.154  25.570  0.00  0.00    -0.204 F 
ATOM      6  C   UNL d   1     -25.063  25.204  24.518  0.00  0.00     0.064 A 
ATOM      7  C   UNL d   1     -24.151  24.651  23.613  0.00  0.00     0.068 A 
ENDROOT
BRANCH   7   8
ATOM      8  C   UNL d   1     -22.830  25.273  23.422  0.00  0.00     0.259 C 
ATOM      9  O   UNL d   1     -22.684  26.146  22.587  0.00  0.00    -0.267 OA
ATOM     10  N   UNL d   1     -21.782  24.876  24.171  0.00  0.00    -0.322 N 
ATOM     11  H   UNL d   1     -21.911  24.224  24.877  0.00  0.00     0.169 HD
BRANCH  10  12
ATOM     12  C   UNL d   1     -20.510  25.405  23.931  0.00  0.00     0.050 A 
ATOM     13  C   UNL d   1     -20.018  26.425  24.734  0.00  0.00     0.074 A 
ATOM     14  C   UNL d   1     -18.762  26.946  24.494  0.00  0.00     0.018 A 
ATOM     15  C   UNL d   1     -17.994  26.452  23.456  0.00  0.00     0.001 A 
ATOM     16  C   UNL d   1     -18.481  25.435  22.654  0.00  0.00     0.002 A 
ATOM     17  C   UNL d   1     -19.734  24.908  22.892  0.00  0.00     0.030 A 
BRANCH  13  18
ATOM     18  C   UNL d   1     -20.854  26.964  25.867  0.00  0.00     0.419 C 
ATOM     19  F   UNL d   1     -21.196  25.919  26.732  0.00  0.00    -0.166 F 
ATOM     20  F   UNL d   1     -20.122  27.930  26.568  0.00  0.00    -0.166 F 
ATOM     21  F   UNL d   1     -22.018  27.544  25.352  0.00  0.00    -0.166 F 
ENDBRANCH  13  18
ENDBRANCH  10  12
ENDBRANCH   7   8
BRANCH   1  22
ATOM     22  O   UNL d   1     -23.620  22.960  22.008  0.00  0.00    -0.336 OA
BRANCH  22  23
ATOM     23  C   UNL d   1     -23.837  23.232  20.623  0.00  0.00     0.232 C 
ATOM     24  C   UNL d   1     -22.509  23.611  19.963  0.00  0.00     0.049 C 
BRANCH  23  25
ATOM     25  C   UNL d   1     -24.408  21.988  19.941  0.00  0.00     0.413 C 
ATOM     26  F   UNL d   1     -24.221  20.876  20.768  0.00  0.00    -0.168 F 
ATOM     27  F   UNL d   1     -25.776  22.170  19.707  0.00  0.00    -0.168 F 
ATOM     28  F   UNL d   1     -23.751  21.779  18.724  0.00  0.00    -0.168 F 
ENDBRANCH  23  25
ENDBRANCH  22  23
ENDBRANCH   1  22
BRANCH   3  29
ATOM     29  N   UNL d   1     -27.894  22.887  24.158  0.00  0.00    -0.178 N 
ATOM     30  C   UNL d   1     -28.288  22.163  25.228  0.00  0.00     0.351 A 
ATOM     31  N   UNL d   1     -29.566  21.808  25.021  0.00  0.00    -0.284 N 
ATOM     32  O   UNL d   1     -27.609  21.883  26.199  0.00  0.00    -0.244 OA
ATOM     33  C   UNL d   1     -29.956  22.286  23.787  0.00  0.00     0.131 A 
ATOM     34  C   UNL d   1     -30.444  21.061  25.931  0.00  0.00     0.135 C 
ATOM     35  N   UNL d   1     -28.974  22.936  23.264  0.00  0.00    -0.149 NA
ATOM     36  C   UNL d   1     -31.325  22.049  23.190  0.00  0.00     0.081 C 
ATOM     37  C   UNL d   1     -32.272  21.632  24.324  0.00  0.00     0.009 C 
ATOM     38  C   UNL d   1     -31.622  20.501  25.126  0.00  0.00     0.021 C 
ENDBRANCH   3  29
TORSDOF 7
ENDMDL
