MODEL 1
REMARK VINA RESULT:     -10.0      0.000      0.000
REMARK  8 active torsions:
REMARK  status: ('A' for Active; 'I' for Inactive)
REMARK    1  A    between atoms: C_2  and  N_3 
REMARK    2  A    between atoms: C_4  and  C_5 
REMARK       I    between atoms: C_5  and  N_7 
REMARK    3  A    between atoms: N_11  and  C_12 
REMARK    4  A    between atoms: C_14  and  O_15 
REMARK    5  A    between atoms: O_15  and  C_16 
REMARK    6  A    between atoms: C_16  and  C_18 
REMARK    7  A    between atoms: C_22  and  C_23 
REMARK       I    between atoms: C_23  and  N_25 
REMARK    8  A    between atoms: N_25  and  C_26 
ROOT
ATOM      1  C   UNL d   1     -26.780  23.344  23.668  0.00  0.00     0.105 A 
ATOM      2  C   UNL d   1     -25.894  22.850  22.721  0.00  0.00     0.073 A 
ATOM      3  C   UNL d   1     -24.638  23.416  22.585  0.00  0.00     0.087 A 
ATOM      4  C   UNL d   1     -24.261  24.482  23.414  0.00  0.00     0.068 A 
ATOM      5  C   UNL d   1     -25.158  24.971  24.370  0.00  0.00     0.064 A 
ATOM      6  C   UNL d   1     -26.407  24.404  24.494  0.00  0.00     0.146 A 
ATOM      7  F   UNL d   1     -27.272  24.875  25.417  0.00  0.00    -0.204 F 
ENDROOT
BRANCH   1   8
ATOM      8  N   UNL d   1     -28.048  22.773  23.799  0.00  0.00    -0.177 N 
ATOM      9  N   UNL d   1     -29.145  22.991  22.955  0.00  0.00    -0.139 NA
ATOM     10  C   UNL d   1     -30.148  22.287  23.404  0.00  0.00     0.223 A 
ATOM     11  N   UNL d   1     -29.730  21.598  24.530  0.00  0.00    -0.277 N 
ATOM     12  C   UNL d   1     -28.438  21.909  24.758  0.00  0.00     0.351 A 
ATOM     13  O   UNL d   1     -27.747  21.486  25.667  0.00  0.00    -0.244 OA
BRANCH  10  14
ATOM     14  C   UNL d   1     -31.496  22.228  22.809  0.00  0.00     0.291 C 
ATOM     15  O   UNL d   1     -32.479  22.286  23.523  0.00  0.00    -0.264 OA
ATOM     16  N   UNL d   1     -31.638  22.111  21.474  0.00  0.00    -0.354 N 
ATOM     17  C   UNL d   1     -32.978  22.053  20.883  0.00  0.00     0.152 C 
ATOM     18  C   UNL d   1     -30.455  22.041  20.614  0.00  0.00     0.152 C 
ENDBRANCH  10  14
BRANCH  11  19
ATOM     19  C   UNL d   1     -30.549  20.689  25.335  0.00  0.00     0.131 C 
ATOM     20  C   UNL d   1     -31.262  21.481  26.433  0.00  0.00     0.027 C 
ENDBRANCH  11  19
ENDBRANCH   1   8
BRANCH   3  21
ATOM     21  O   UNL d   1     -23.772  22.938  21.655  0.00  0.00    -0.336 OA
BRANCH  21  22
ATOM     22  C   UNL d   1     -23.889  23.461  20.330  0.00  0.00     0.232 C 
ATOM     23  C   UNL d   1     -22.508  23.889  19.828  0.00  0.00     0.049 C 
BRANCH  22  24
ATOM     24  C   UNL d   1     -24.457  22.383  19.405  0.00  0.00     0.413 C 
ATOM     25  F   UNL d   1     -25.728  22.007  19.852  0.00  0.00    -0.168 F 
ATOM     26  F   UNL d   1     -24.550  22.889  18.104  0.00  0.00    -0.168 F 
ATOM     27  F   UNL d   1     -23.611  21.269  19.413  0.00  0.00    -0.168 F 
ENDBRANCH  22  24
ENDBRANCH  21  22
ENDBRANCH   3  21
BRANCH   4  28
ATOM     28  C   UNL d   1     -22.923  25.087  23.279  0.00  0.00     0.259 C 
ATOM     29  O   UNL d   1     -22.787  26.131  22.669  0.00  0.00    -0.267 OA
ATOM     30  N   UNL d   1     -21.852  24.483  23.831  0.00  0.00    -0.318 N 
ATOM     31  H   UNL d   1     -21.946  23.610  24.243  0.00  0.00     0.169 HD
BRANCH  30  32
ATOM     32  C   UNL d   1     -20.602  25.116  23.809  0.00  0.00     0.113 A 
ATOM     33  C   UNL d   1     -20.280  26.056  24.780  0.00  0.00     0.146 A 
ATOM     34  C   UNL d   1     -19.045  26.679  24.755  0.00  0.00     0.045 A 
ATOM     35  F   UNL d   1     -21.172  26.361  25.749  0.00  0.00    -0.204 F 
ATOM     36  C   UNL d   1     -18.131  26.367  23.765  0.00  0.00     0.006 A 
ATOM     37  C   UNL d   1     -18.448  25.432  22.797  0.00  0.00     0.045 A 
ATOM     38  C   UNL d   1     -19.679  24.801  22.818  0.00  0.00     0.146 A 
ATOM     39  F   UNL d   1     -19.986  23.883  21.875  0.00  0.00    -0.204 F 
ENDBRANCH  30  32
ENDBRANCH   4  28
TORSDOF 8
ENDMDL
