MODEL 1
REMARK VINA RESULT:      -9.2      0.000      0.000
REMARK  6 active torsions:
REMARK  status: ('A' for Active; 'I' for Inactive)
REMARK    1  A    between atoms: C_2  and  N_3 
REMARK    2  A    between atoms: C_4  and  C_5 
REMARK    3  A    between atoms: C_5  and  O_6 
REMARK    4  A    between atoms: N_8  and  C_9 
REMARK    5  A    between atoms: C_12  and  C_13 
REMARK    6  A    between atoms: N_17  and  C_18 
ROOT
ATOM      1  C   UNL d   1     -28.685  22.212  22.141  0.00  0.00     0.103 A 
ATOM      2  C   UNL d   1     -27.998  23.109  22.941  0.00  0.00     0.048 A 
ATOM      3  C   UNL d   1     -26.622  23.254  22.779  0.00  0.00    -0.010 A 
ATOM      4  C   UNL d   1     -25.838  24.183  23.597  0.00  0.00    -0.027 A 
ATOM      5  C   UNL d   1     -24.516  24.287  23.394  0.00  0.00     0.109 A 
ATOM      6  N   UNL d   1     -23.861  23.552  22.444  0.00  0.00    -0.288 N 
ATOM      7  C   UNL d   1     -24.500  22.674  21.647  0.00  0.00     0.263 A 
ATOM      8  O   UNL d   1     -23.882  22.037  20.812  0.00  0.00    -0.267 OA
ATOM      9  C   UNL d   1     -25.946  22.492  21.794  0.00  0.00     0.046 A 
ATOM     10  C   UNL d   1     -26.663  21.598  20.997  0.00  0.00     0.062 A 
ATOM     11  C   UNL d   1     -28.012  21.464  21.172  0.00  0.00     0.146 A 
ATOM     12  F   UNL d   1     -28.703  20.597  20.399  0.00  0.00    -0.204 F 
ENDROOT
BRANCH   1  13
ATOM     13  N   UNL d   1     -30.065  22.058  22.302  0.00  0.00    -0.178 N 
ATOM     14  N   UNL d   1     -31.035  22.155  21.293  0.00  0.00    -0.147 NA
ATOM     15  C   UNL d   1     -32.194  21.946  21.828  0.00  0.00     0.154 A 
ATOM     16  N   UNL d   1     -32.028  21.722  23.173  0.00  0.00    -0.283 N 
ATOM     17  C   UNL d   1     -30.711  21.789  23.455  0.00  0.00     0.351 A 
ATOM     18  O   UNL d   1     -30.200  21.636  24.549  0.00  0.00    -0.244 OA
BRANCH  15  19
ATOM     19  C   UNL d   1     -33.512  21.954  21.097  0.00  0.00     0.244 C 
BRANCH  19  20
ATOM     20  O   UNL d   1     -33.871  20.615  20.748  0.00  0.00    -0.393 OA
ATOM     21  H   UNL d   1     -33.811  20.425  19.802  0.00  0.00     0.209 HD
ENDBRANCH  19  20
ENDBRANCH  15  19
BRANCH  16  22
ATOM     22  C   UNL d   1     -33.099  21.450  24.136  0.00  0.00     0.131 C 
ATOM     23  C   UNL d   1     -33.283  19.939  24.282  0.00  0.00     0.027 C 
ENDBRANCH  16  22
ENDBRANCH   1  13
BRANCH   4  24
ATOM     24  C   UNL d   1     -26.512  25.016  24.657  0.00  0.00     0.013 C 
ATOM     25  C   UNL d   1     -26.878  24.126  25.848  0.00  0.00     0.015 C 
ATOM     26  C   UNL d   1     -25.562  26.121  25.120  0.00  0.00     0.015 C 
ENDBRANCH   4  24
BRANCH   6  27
ATOM     27  C   UNL d   1     -22.479  23.718  22.295  0.00  0.00     0.048 A 
ATOM     28  C   UNL d   1     -21.977  24.442  21.222  0.00  0.00    -0.035 A 
ATOM     29  C   UNL d   1     -20.613  24.604  21.077  0.00  0.00     0.009 A 
ATOM     30  C   UNL d   1     -22.920  25.051  20.215  0.00  0.00     0.050 C 
ATOM     31  C   UNL d   1     -19.748  24.047  22.000  0.00  0.00     0.001 A 
ATOM     32  C   UNL d   1     -20.244  23.325  23.070  0.00  0.00     0.002 A 
ATOM     33  C   UNL d   1     -21.607  23.164  23.223  0.00  0.00     0.030 A 
ENDBRANCH   6  27
TORSDOF 6
ENDMDL
