MODEL 1
REMARK VINA RESULT:     -11.8      0.000      0.000
REMARK  3 active torsions:
REMARK  status: ('A' for Active; 'I' for Inactive)
REMARK    1  A    between atoms: C_2  and  C_4 
REMARK    2  A    between atoms: C_7  and  C_8 
REMARK    3  A    between atoms: C_12  and  N_13 
ROOT
ATOM      1  C   UNL d   1     -25.500  23.378  23.718  0.00  0.00     0.051 A 
ATOM      2  C   UNL d   1     -26.196  24.058  24.721  0.00  0.00     0.132 A 
ATOM      3  F   UNL d   1     -25.693  25.199  25.237  0.00  0.00    -0.205 F 
ATOM      4  C   UNL d   1     -27.400  23.561  25.182  0.00  0.00     0.075 A 
ATOM      5  C   UNL d   1     -27.918  22.387  24.650  0.00  0.00     0.066 A 
ATOM      6  C   UNL d   1     -27.226  21.704  23.656  0.00  0.00     0.075 A 
ATOM      7  C   UNL d   1     -26.025  22.198  23.186  0.00  0.00     0.132 A 
ATOM      8  F   UNL d   1     -25.355  21.538  22.215  0.00  0.00    -0.205 F 
ENDROOT
BRANCH   5   9
ATOM      9  N   UNL d   1     -29.136  21.886  25.119  0.00  0.00    -0.209 N 
ATOM     10  C   UNL d   1     -30.280  21.754  24.392  0.00  0.00     0.146 A 
ATOM     11  C   UNL d   1     -31.220  21.221  25.266  0.00  0.00     0.164 A 
ATOM     12  C   UNL d   1     -30.642  22.046  22.998  0.00  0.00     0.214 A 
ATOM     13  N   UNL d   1     -30.589  21.072  26.439  0.00  0.00    -0.125 NA
ATOM     14  C   UNL d   1     -32.593  20.942  24.805  0.00  0.00     0.216 A 
ATOM     15  N   UNL d   1     -29.372  21.472  26.316  0.00  0.00    -0.059 NA
ATOM     16  C   UNL d   1     -32.967  21.228  23.402  0.00  0.00     0.031 A 
ATOM     17  O   UNL d   1     -33.412  20.477  25.572  0.00  0.00    -0.285 OA
ATOM     18  C   UNL d   1     -32.015  21.772  22.521  0.00  0.00     0.031 A 
ATOM     19  C   UNL d   1     -34.255  20.966  22.949  0.00  0.00     0.016 A 
ATOM     20  C   UNL d   1     -32.372  22.044  21.205  0.00  0.00     0.016 A 
ATOM     21  C   UNL d   1     -33.655  21.767  20.766  0.00  0.00     0.001 A 
ATOM     22  C   UNL d   1     -34.593  21.238  21.634  0.00  0.00     0.001 A 
ATOM     23  O   UNL d   1     -29.814  22.512  22.239  0.00  0.00    -0.285 OA
ENDBRANCH   5   9
BRANCH   1  24
ATOM     24  C   UNL d   1     -24.208  23.908  23.220  0.00  0.00    -0.020 A 
ATOM     25  C   UNL d   1     -23.089  23.080  23.164  0.00  0.00     0.013 A 
ATOM     26  C   UNL d   1     -21.887  23.578  22.700  0.00  0.00     0.008 A 
ATOM     27  C   UNL d   1     -21.795  24.896  22.291  0.00  0.00    -0.055 A 
ATOM     28  C   UNL d   1     -22.903  25.723  22.345  0.00  0.00     0.008 A 
ATOM     29  C   UNL d   1     -24.110  25.234  22.802  0.00  0.00     0.013 A 
BRANCH  27  30
ATOM     30  C   UNL d   1     -20.481  25.435  21.785  0.00  0.00     0.010 C 
ATOM     31  C   UNL d   1     -19.632  25.902  22.970  0.00  0.00     0.015 C 
ATOM     32  C   UNL d   1     -19.737  24.336  21.025  0.00  0.00     0.015 C 
ENDBRANCH  27  30
ENDBRANCH   1  24
TORSDOF 3
ENDMDL
