MODEL 1
REMARK VINA RESULT:     -11.3      0.000      0.000
REMARK  7 active torsions:
REMARK  status: ('A' for Active; 'I' for Inactive)
REMARK       I    between atoms: C_2  and  N_3 
REMARK    1  A    between atoms: C_2  and  C_23 
REMARK    2  A    between atoms: N_3  and  C_4 
REMARK    3  A    between atoms: C_8  and  C_9 
REMARK    4  A    between atoms: C_13  and  O_14 
REMARK    5  A    between atoms: O_14  and  C_15 
REMARK    6  A    between atoms: C_27  and  C_28 
REMARK    7  A    between atoms: C_28  and  O_30 
ROOT
ATOM      1  C   UNL d   1     -26.048  22.453  22.497  0.00  0.00     0.113 A 
ATOM      2  C   UNL d   1     -26.822  22.733  23.619  0.00  0.00     0.147 A 
ATOM      3  F   UNL d   1     -26.229  23.114  24.771  0.00  0.00    -0.204 F 
ATOM      4  C   UNL d   1     -28.197  22.626  23.555  0.00  0.00     0.057 A 
ATOM      5  C   UNL d   1     -28.810  22.228  22.367  0.00  0.00    -0.020 A 
ATOM      6  C   UNL d   1     -28.033  21.942  21.246  0.00  0.00     0.057 A 
ATOM      7  C   UNL d   1     -26.659  22.055  21.313  0.00  0.00     0.147 A 
ATOM      8  F   UNL d   1     -25.905  21.778  20.225  0.00  0.00    -0.204 F 
ENDROOT
BRANCH   1   9
ATOM      9  N   UNL d   1     -24.656  22.567  22.564  0.00  0.00    -0.318 N 
ATOM     10  C   UNL d   1     -24.084  23.780  22.697  0.00  0.00     0.257 C 
ATOM     11  O   UNL d   1     -24.779  24.766  22.851  0.00  0.00    -0.267 OA
ATOM     12  H   UNL d   1     -24.101  21.772  22.512  0.00  0.00     0.169 HD
BRANCH  10  13
ATOM     13  C   UNL d   1     -22.614  23.912  22.659  0.00  0.00     0.056 A 
ATOM     14  C   UNL d   1     -21.897  24.141  21.501  0.00  0.00     0.093 A 
ATOM     15  S   UNL d   1     -20.188  24.240  21.897  0.00  0.00    -0.094 SA
ATOM     16  C   UNL d   1     -20.499  23.968  23.551  0.00  0.00     0.052 A 
ATOM     17  C   UNL d   1     -21.805  23.815  23.781  0.00  0.00     0.026 A 
BRANCH  14  18
ATOM     18  C   UNL d   1     -22.471  24.287  20.157  0.00  0.00     0.184 C 
ATOM     19  O   UNL d   1     -23.201  23.424  19.711  0.00  0.00    -0.646 OA
BRANCH  18  20
ATOM     20  O   UNL d   1     -22.187  25.379  19.418  0.00  0.00    -0.772 OA
ATOM     21  H   UNL d   1     -21.333  25.392  18.965  0.00  0.00     0.167 HD
ENDBRANCH  18  20
ENDBRANCH  14  18
ENDBRANCH  10  13
ENDBRANCH   1   9
BRANCH   5  22
ATOM     22  C   UNL d   1     -30.287  22.106  22.299  0.00  0.00    -0.023 A 
ATOM     23  C   UNL d   1     -31.025  21.891  23.459  0.00  0.00     0.049 A 
ATOM     24  C   UNL d   1     -32.405  21.786  23.389  0.00  0.00     0.079 A 
ATOM     25  C   UNL d   1     -33.047  21.882  22.162  0.00  0.00     0.037 A 
ATOM     26  C   UNL d   1     -32.314  22.091  21.009  0.00  0.00     0.004 A 
ATOM     27  C   UNL d   1     -30.939  22.203  21.071  0.00  0.00     0.012 A 
BRANCH  24  28
ATOM     28  O   UNL d   1     -33.129  21.580  24.520  0.00  0.00    -0.255 OA
BRANCH  28  29
ATOM     29  C   UNL d   1     -33.278  20.229  24.960  0.00  0.00     0.530 C 
ATOM     30  F   UNL d   1     -32.993  19.360  23.901  0.00  0.00    -0.144 F 
ATOM     31  F   UNL d   1     -32.396  19.982  26.016  0.00  0.00    -0.144 F 
ATOM     32  F   UNL d   1     -34.592  20.022  25.391  0.00  0.00    -0.144 F 
ENDBRANCH  28  29
ENDBRANCH  24  28
ENDBRANCH   5  22
TORSDOF 7
ENDMDL
