MODEL 1
REMARK VINA RESULT:      -9.7      0.000      0.000
REMARK  10 active torsions:
REMARK  status: ('A' for Active; 'I' for Inactive)
REMARK    1  A    between atoms: C_2  and  N_3 
REMARK    2  A    between atoms: C_4  and  C_5 
REMARK    3  A    between atoms: C_5  and  O_6 
REMARK    4  A    between atoms: N_8  and  C_9 
REMARK    5  A    between atoms: C_11  and  O_12 
REMARK    6  A    between atoms: O_12  and  C_13 
REMARK    7  A    between atoms: C_13  and  C_15 
REMARK    8  A    between atoms: C_19  and  C_20 
REMARK       I    between atoms: C_20  and  N_22 
REMARK    9  A    between atoms: N_22  and  C_23 
REMARK   10  A    between atoms: C_28  and  O_29 
ROOT
ATOM      1  C   UNL d   1     -26.531  23.623  23.737  0.00  0.00     0.197 A 
ATOM      2  N   UNL d   1     -25.618  23.164  22.895  0.00  0.00    -0.201 NA
ATOM      3  C   UNL d   1     -24.420  23.713  22.802  0.00  0.00     0.183 A 
ATOM      4  C   UNL d   1     -24.070  24.804  23.612  0.00  0.00     0.088 A 
ATOM      5  C   UNL d   1     -25.017  25.307  24.517  0.00  0.00     0.068 A 
ATOM      6  C   UNL d   1     -26.257  24.704  24.574  0.00  0.00     0.165 A 
ATOM      7  F   UNL d   1     -27.197  25.157  25.433  0.00  0.00    -0.202 F 
ENDROOT
BRANCH   4   8
ATOM      8  C   UNL d   1     -22.733  25.412  23.513  0.00  0.00     0.260 C 
ATOM      9  O   UNL d   1     -22.494  26.214  22.631  0.00  0.00    -0.267 OA
ATOM     10  N   UNL d   1     -21.774  25.078  24.399  0.00  0.00    -0.321 N 
ATOM     11  H   UNL d   1     -21.985  24.495  25.145  0.00  0.00     0.169 HD
BRANCH  10  12
ATOM     12  C   UNL d   1     -20.478  25.571  24.243  0.00  0.00     0.068 A 
ATOM     13  C   UNL d   1     -19.605  25.004  23.317  0.00  0.00     0.114 A 
ATOM     14  C   UNL d   1     -18.327  25.528  23.190  0.00  0.00     0.188 A 
ATOM     15 CL   UNL d   1     -20.112  23.667  22.334  0.00  0.00    -0.077 Cl
ATOM     16  N   UNL d   1     -17.935  26.543  23.942  0.00  0.00    -0.235 NA
ATOM     17  C   UNL d   1     -18.736  27.101  24.833  0.00  0.00     0.128 A 
ATOM     18  C   UNL d   1     -20.022  26.641  25.014  0.00  0.00    -0.016 A 
ATOM     19  C   UNL d   1     -20.925  27.284  26.034  0.00  0.00     0.052 C 
BRANCH  14  20
ATOM     20  O   UNL d   1     -17.468  24.989  22.289  0.00  0.00    -0.338 OA
ATOM     21  C   UNL d   1     -16.121  25.466  22.311  0.00  0.00     0.211 C 
ENDBRANCH  14  20
ENDBRANCH  10  12
ENDBRANCH   4   8
BRANCH   3  22
ATOM     22  O   UNL d   1     -23.518  23.214  21.923  0.00  0.00    -0.319 OA
BRANCH  22  23
ATOM     23  C   UNL d   1     -23.810  23.377  20.533  0.00  0.00     0.234 C 
ATOM     24  C   UNL d   1     -22.532  23.765  19.786  0.00  0.00     0.049 C 
BRANCH  23  25
ATOM     25  C   UNL d   1     -24.350  22.061  19.968  0.00  0.00     0.413 C 
ATOM     26  F   UNL d   1     -23.652  21.732  18.802  0.00  0.00    -0.168 F 
ATOM     27  F   UNL d   1     -24.183  21.044  20.914  0.00  0.00    -0.168 F 
ATOM     28  F   UNL d   1     -25.710  22.204  19.673  0.00  0.00    -0.168 F 
ENDBRANCH  23  25
ENDBRANCH  22  23
ENDBRANCH   3  22
BRANCH   1  29
ATOM     29  N   UNL d   1     -27.781  23.012  23.793  0.00  0.00    -0.159 N 
ATOM     30  N   UNL d   1     -28.800  23.118  22.837  0.00  0.00    -0.145 NA
ATOM     31  C   UNL d   1     -29.804  22.406  23.239  0.00  0.00     0.154 A 
ATOM     32  N   UNL d   1     -29.487  21.835  24.447  0.00  0.00    -0.283 N 
ATOM     33  C   UNL d   1     -28.237  22.211  24.779  0.00  0.00     0.352 A 
ATOM     34  O   UNL d   1     -27.630  21.888  25.784  0.00  0.00    -0.244 OA
BRANCH  31  35
ATOM     35  C   UNL d   1     -31.109  22.237  22.503  0.00  0.00     0.244 C 
BRANCH  35  36
ATOM     36  O   UNL d   1     -30.884  22.364  21.097  0.00  0.00    -0.393 OA
ATOM     37  H   UNL d   1     -30.745  23.274  20.802  0.00  0.00     0.209 HD
ENDBRANCH  35  36
ENDBRANCH  31  35
BRANCH  32  38
ATOM     38  C   UNL d   1     -30.358  20.959  25.235  0.00  0.00     0.131 C 
ATOM     39  C   UNL d   1     -31.543  21.768  25.770  0.00  0.00     0.027 C 
ENDBRANCH  32  38
ENDBRANCH   1  29
TORSDOF 10
ENDMDL
