MODEL 1
REMARK VINA RESULT:      -7.7      0.000      0.000
REMARK  4 active torsions:
REMARK  status: ('A' for Active; 'I' for Inactive)
REMARK    1  A    between atoms: O_2  and  C_3 
REMARK    2  A    between atoms: C_3  and  C_5 
REMARK    3  A    between atoms: C_5  and  C_8 
REMARK    4  A    between atoms: N_13  and  C_14 
ROOT
ATOM      1  C   UNL d   1     -21.377  26.597  24.642  0.00  0.00     0.153 C 
ATOM      2  C   UNL d   1     -22.552  26.792  23.849  0.00  0.00     0.108 C 
ATOM      3  N   UNL d   1     -23.485  26.947  23.219  0.00  0.00    -0.191 NA
ENDROOT
BRANCH   1   4
ATOM      4  C   UNL d   1     -21.426  26.804  26.044  0.00  0.00     0.306 C 
ATOM      5  O   UNL d   1     -21.953  27.804  26.494  0.00  0.00    -0.258 OA
BRANCH   4   6
ATOM      6  O   UNL d   1     -20.888  25.890  26.880  0.00  0.00    -0.322 OA
ATOM      7  C   UNL d   1     -20.191  26.388  28.024  0.00  0.00     0.213 C 
ENDBRANCH   4   6
ENDBRANCH   1   4
BRANCH   1   8
ATOM      8  C   UNL d   1     -20.182  26.205  24.036  0.00  0.00     0.107 A 
ATOM      9  N   UNL d   1     -20.034  25.164  23.172  0.00  0.00    -0.274 N 
ATOM     10  C   UNL d   1     -18.847  24.888  22.653  0.00  0.00     0.239 A 
ATOM     11  C   UNL d   1     -17.761  25.825  23.134  0.00  0.00     0.184 A 
ATOM     12  O   UNL d   1     -18.652  23.979  21.876  0.00  0.00    -0.272 OA
ATOM     13  S   UNL d   1     -18.648  26.951  24.260  0.00  0.00    -0.101 SA
BRANCH   9  14
ATOM     14  C   UNL d   1     -21.146  24.386  22.823  0.00  0.00     0.044 A 
ATOM     15  C   UNL d   1     -21.629  24.430  21.534  0.00  0.00     0.042 A 
ATOM     16  C   UNL d   1     -22.743  23.648  21.187  0.00  0.00    -0.024 A 
ATOM     17  C   UNL d   1     -23.348  22.823  22.167  0.00  0.00    -0.026 A 
ATOM     18  C   UNL d   1     -23.267  23.666  19.882  0.00  0.00     0.012 A 
ATOM     19  C   UNL d   1     -22.831  22.807  23.475  0.00  0.00     0.014 A 
ATOM     20  C   UNL d   1     -24.466  22.046  21.818  0.00  0.00     0.012 A 
ATOM     21  C   UNL d   1     -21.752  23.572  23.786  0.00  0.00     0.031 A 
ATOM     22  C   UNL d   1     -24.945  22.088  20.545  0.00  0.00     0.001 A 
ATOM     23  C   UNL d   1     -24.347  22.896  19.579  0.00  0.00     0.001 A 
ENDBRANCH   9  14
ENDBRANCH   1   8
TORSDOF 4
ENDMDL
