MODEL 1
REMARK VINA RESULT:     -10.4      0.000      0.000
REMARK  4 active torsions:
REMARK  status: ('A' for Active; 'I' for Inactive)
REMARK    1  A    between atoms: C_7  and  N_8 
REMARK    2  A    between atoms: C_10  and  C_11 
REMARK    3  A    between atoms: C_16  and  C_17 
REMARK    4  A    between atoms: C_22  and  N_23 
ROOT
ATOM      1  N   UNL d   1     -29.319  22.170  23.364  0.00  0.00    -0.288 N 
ATOM      2  C   UNL d   1     -28.732  22.682  24.488  0.00  0.00     0.109 A 
ATOM      3  C   UNL d   1     -27.434  23.027  24.528  0.00  0.00    -0.027 A 
ATOM      4  C   UNL d   1     -26.604  22.842  23.336  0.00  0.00    -0.011 A 
ATOM      5  C   UNL d   1     -25.251  23.177  23.324  0.00  0.00     0.030 A 
ATOM      6  C   UNL d   1     -24.512  22.982  22.164  0.00  0.00     0.032 A 
ATOM      7  C   UNL d   1     -25.118  22.451  21.016  0.00  0.00     0.130 A 
ATOM      8  F   UNL d   1     -24.384  22.267  19.898  0.00  0.00    -0.205 F 
ATOM      9  C   UNL d   1     -26.444  22.118  21.019  0.00  0.00     0.061 A 
ATOM     10  C   UNL d   1     -27.206  22.307  22.173  0.00  0.00     0.046 A 
ATOM     11  C   UNL d   1     -28.631  21.966  22.223  0.00  0.00     0.263 A 
ATOM     12  O   UNL d   1     -29.188  21.503  21.244  0.00  0.00    -0.267 OA
ENDROOT
BRANCH   6  13
ATOM     13  C   UNL d   1     -23.072  23.335  22.140  0.00  0.00     0.072 A 
ATOM     14  N   UNL d   1     -22.586  24.044  21.127  0.00  0.00    -0.231 NA
ATOM     15  C   UNL d   1     -21.309  24.383  21.071  0.00  0.00     0.127 A 
ATOM     16  C   UNL d   1     -20.426  23.995  22.075  0.00  0.00    -0.017 A 
ATOM     17  C   UNL d   1     -20.897  23.250  23.142  0.00  0.00     0.013 A 
ATOM     18  C   UNL d   1     -18.970  24.382  22.000  0.00  0.00     0.052 C 
ATOM     19  C   UNL d   1     -22.241  22.915  23.175  0.00  0.00     0.033 A 
BRANCH  15  20
ATOM     20  N   UNL d   1     -20.843  25.131  19.997  0.00  0.00    -0.384 N 
ATOM     21  H   UNL d   1     -20.663  24.699  19.147  0.00  0.00     0.157 HD
ATOM     22  H   UNL d   1     -20.699  26.084  20.096  0.00  0.00     0.157 HD
ENDBRANCH  15  20
ENDBRANCH   6  13
BRANCH   3  23
ATOM     23  C   UNL d   1     -26.837  23.593  25.791  0.00  0.00     0.013 C 
ATOM     24  C   UNL d   1     -27.659  23.130  26.995  0.00  0.00     0.015 C 
ATOM     25  C   UNL d   1     -26.850  25.121  25.721  0.00  0.00     0.015 C 
ENDBRANCH   3  23
BRANCH   1  26
ATOM     26  C   UNL d   1     -30.678  21.842  23.401  0.00  0.00     0.048 A 
ATOM     27  C   UNL d   1     -31.200  21.158  24.491  0.00  0.00    -0.035 A 
ATOM     28  C   UNL d   1     -30.303  20.767  25.636  0.00  0.00     0.050 C 
ATOM     29  C   UNL d   1     -32.543  20.836  24.524  0.00  0.00     0.009 A 
ATOM     30  C   UNL d   1     -33.368  21.194  23.474  0.00  0.00     0.001 A 
ATOM     31  C   UNL d   1     -32.851  21.875  22.386  0.00  0.00     0.002 A 
ATOM     32  C   UNL d   1     -31.511  22.205  22.350  0.00  0.00     0.030 A 
ENDBRANCH   1  26
TORSDOF 4
ENDMDL
