MODEL 1
REMARK VINA RESULT:      -7.6      0.000      0.000
REMARK  7 active torsions:
REMARK  status: ('A' for Active; 'I' for Inactive)
REMARK    1  A    between atoms: O_2  and  C_3 
REMARK    2  A    between atoms: C_7  and  N_8 
REMARK       I    between atoms: N_8  and  C_9 
REMARK    3  A    between atoms: C_9  and  C_11 
REMARK    4  A    between atoms: C_15  and  N_16 
REMARK    5  A    between atoms: C_27  and  O_28 
REMARK    6  A    between atoms: O_28  and  C_29 
REMARK    7  A    between atoms: C_29  and  C_31 
ROOT
ATOM      1  C   UNL d   1     -18.641  26.551  24.307  0.00  0.00     0.068 A 
ATOM      2  C   UNL d   1     -18.322  25.638  23.297  0.00  0.00     0.064 A 
ATOM      3  C   UNL d   1     -19.322  24.926  22.673  0.00  0.00     0.146 A 
ATOM      4  F   UNL d   1     -19.014  24.048  21.693  0.00  0.00    -0.204 F 
ATOM      5  C   UNL d   1     -20.652  25.109  23.049  0.00  0.00     0.104 A 
ATOM      6  C   UNL d   1     -20.977  26.009  24.055  0.00  0.00     0.073 A 
ATOM      7  C   UNL d   1     -19.980  26.730  24.689  0.00  0.00     0.087 A 
ENDROOT
BRANCH   1   8
ATOM      8  C   UNL d   1     -17.575  27.320  24.972  0.00  0.00     0.259 C 
ATOM      9  N   UNL d   1     -17.533  27.388  26.316  0.00  0.00    -0.321 N 
ATOM     10  H   UNL d   1     -18.159  26.872  26.848  0.00  0.00     0.169 HD
ATOM     11  O   UNL d   1     -16.734  27.895  24.307  0.00  0.00    -0.267 OA
BRANCH   9  12
ATOM     12  C   UNL d   1     -16.585  28.204  26.947  0.00  0.00     0.058 A 
ATOM     13  C   UNL d   1     -16.858  29.550  27.186  0.00  0.00    -0.030 A 
ATOM     14  C   UNL d   1     -15.894  30.317  27.816  0.00  0.00     0.067 A 
ATOM     15  C   UNL d   1     -18.176  30.155  26.772  0.00  0.00     0.050 C 
ATOM     16  C   UNL d   1     -14.690  29.726  28.178  0.00  0.00     0.164 A 
ATOM     17  N   UNL d   1     -14.462  28.448  27.932  0.00  0.00    -0.235 NA
ATOM     18  C   UNL d   1     -15.360  27.684  27.338  0.00  0.00     0.149 A 
BRANCH  16  19
ATOM     19  O   UNL d   1     -13.736  30.472  28.791  0.00  0.00    -0.339 OA
ATOM     20  C   UNL d   1     -14.003  30.892  30.130  0.00  0.00     0.211 C 
ENDBRANCH  16  19
ENDBRANCH   9  12
ENDBRANCH   1   8
BRANCH   7  21
ATOM     21  O   UNL d   1     -20.296  27.610  25.672  0.00  0.00    -0.345 OA
BRANCH  21  22
ATOM     22  C   UNL d   1     -21.131  27.130  26.728  0.00  0.00     0.129 C 
ATOM     23  C   UNL d   1     -20.312  26.238  27.661  0.00  0.00     0.040 C 
BRANCH  22  24
ATOM     24  C   UNL d   1     -21.688  28.318  27.516  0.00  0.00     0.015 C 
ATOM     25  C   UNL d   1     -21.641  29.575  26.646  0.00  0.00     0.007 C 
ATOM     26  C   UNL d   1     -22.198  30.762  27.435  0.00  0.00     0.000 C 
ATOM     27  C   UNL d   1     -21.354  30.980  28.692  0.00  0.00     0.000 C 
ATOM     28  C   UNL d   1     -21.401  29.722  29.563  0.00  0.00     0.000 C 
ATOM     29  C   UNL d   1     -20.844  28.536  28.774  0.00  0.00     0.007 C 
ENDBRANCH  22  24
ENDBRANCH  21  22
ENDBRANCH   7  21
BRANCH   5  30
ATOM     30  N   UNL d   1     -21.662  24.383  22.413  0.00  0.00    -0.178 N 
ATOM     31  C   UNL d   1     -21.977  24.433  21.099  0.00  0.00     0.351 A 
ATOM     32  N   UNL d   1     -22.981  23.566  20.895  0.00  0.00    -0.284 N 
ATOM     33  O   UNL d   1     -21.447  25.134  20.257  0.00  0.00    -0.244 OA
ATOM     34  C   UNL d   1     -23.319  22.997  22.107  0.00  0.00     0.131 A 
ATOM     35  C   UNL d   1     -23.624  23.227  19.620  0.00  0.00     0.135 C 
ATOM     36  N   UNL d   1     -22.532  23.462  23.017  0.00  0.00    -0.149 NA
ATOM     37  C   UNL d   1     -24.445  22.007  22.284  0.00  0.00     0.081 C 
ATOM     38  C   UNL d   1     -24.788  21.425  20.906  0.00  0.00     0.009 C 
ATOM     39  C   UNL d   1     -24.980  22.575  19.912  0.00  0.00     0.021 C 
ENDBRANCH   5  30
TORSDOF 7
ENDMDL
