MODEL 1
REMARK VINA RESULT:     -11.5      0.000      0.000
REMARK  3 active torsions:
REMARK  status: ('A' for Active; 'I' for Inactive)
REMARK    1  A    between atoms: C_7  and  N_8 
REMARK    2  A    between atoms: C_16  and  N_17 
REMARK       I    between atoms: N_17  and  C_18 
REMARK    3  A    between atoms: C_18  and  C_20 
ROOT
ATOM      1  N   UNL d   1     -24.304  24.019  23.478  0.00  0.00    -0.237 N 
ATOM      2  N   UNL d   1     -25.270  24.544  24.348  0.00  0.00    -0.179 NA
ATOM      3  C   UNL d   1     -26.429  24.008  24.048  0.00  0.00     0.150 A 
ATOM      4  C   UNL d   1     -26.237  23.131  22.982  0.00  0.00     0.008 A 
ATOM      5  C   UNL d   1     -24.921  23.157  22.650  0.00  0.00     0.046 A 
ATOM      6  C   UNL d   1     -24.314  22.342  21.535  0.00  0.00     0.060 C 
ATOM      7  C   UNL d   1     -25.446  21.847  20.626  0.00  0.00     0.008 C 
ATOM      8  C   UNL d   1     -26.539  21.198  21.479  0.00  0.00     0.030 C 
ATOM      9  C   UNL d   1     -27.270  22.279  22.286  0.00  0.00     0.121 C 
ENDROOT
BRANCH   9  10
ATOM     10  N   UNL d   1     -28.142  21.650  23.280  0.00  0.00    -0.347 N 
ATOM     11  C   UNL d   1     -29.383  22.131  23.488  0.00  0.00     0.273 C 
ATOM     12  O   UNL d   1     -29.779  23.087  22.851  0.00  0.00    -0.266 OA
ATOM     13  H   UNL d   1     -27.826  20.886  23.789  0.00  0.00     0.163 HD
BRANCH  11  14
ATOM     14  C   UNL d   1     -30.267  21.494  24.494  0.00  0.00     0.160 A 
ATOM     15  C   UNL d   1     -31.606  21.088  24.318  0.00  0.00     0.010 A 
ATOM     16  C   UNL d   1     -31.966  20.571  25.516  0.00  0.00     0.087 A 
ATOM     17  C   UNL d   1     -32.497  21.169  23.113  0.00  0.00     0.044 C 
ATOM     18  O   UNL d   1     -30.903  20.677  26.311  0.00  0.00    -0.217 OA
ATOM     19  C   UNL d   1     -33.331  20.005  25.807  0.00  0.00     0.068 C 
ATOM     20  N   UNL d   1     -29.964  21.191  25.738  0.00  0.00    -0.122 NA
ATOM     21  C   UNL d   1     -34.297  20.493  24.718  0.00  0.00     0.007 C 
ATOM     22  C   UNL d   1     -33.691  20.231  23.336  0.00  0.00     0.005 C 
ENDBRANCH  11  14
ENDBRANCH   9  10
BRANCH   1  23
ATOM     23  C   UNL d   1     -22.938  24.335  23.473  0.00  0.00     0.064 A 
ATOM     24  C   UNL d   1     -22.528  25.648  23.286  0.00  0.00    -0.033 A 
ATOM     25  C   UNL d   1     -23.553  26.737  23.089  0.00  0.00     0.050 C 
ATOM     26  C   UNL d   1     -21.183  25.958  23.287  0.00  0.00     0.009 A 
ATOM     27  C   UNL d   1     -20.242  24.960  23.462  0.00  0.00     0.001 A 
ATOM     28  C   UNL d   1     -20.647  23.650  23.643  0.00  0.00     0.002 A 
ATOM     29  C   UNL d   1     -21.992  23.335  23.648  0.00  0.00     0.032 A 
ENDBRANCH   1  23
TORSDOF 3
ENDMDL
