MODEL 1
REMARK VINA RESULT:      -9.6      0.000      0.000
REMARK  7 active torsions:
REMARK  status: ('A' for Active; 'I' for Inactive)
REMARK    1  A    between atoms: C_2  and  C_3 
REMARK    2  A    between atoms: C_3  and  O_5 
REMARK    3  A    between atoms: O_5  and  C_6 
REMARK    4  A    between atoms: C_8  and  N_9 
REMARK       I    between atoms: N_9  and  C_10 
REMARK    5  A    between atoms: C_10  and  C_12 
REMARK    6  A    between atoms: C_15  and  O_17 
REMARK    7  A    between atoms: C_21  and  C_22 
ROOT
ATOM      1  C   UNL d   1     -31.573  20.997  24.507  0.00  0.00     0.141 C 
ATOM      2  C   UNL d   1     -31.650  20.032  25.562  0.00  0.00     0.107 C 
ATOM      3  N   UNL d   1     -31.712  19.267  26.399  0.00  0.00    -0.191 NA
ATOM      4  C   UNL d   1     -32.609  21.135  23.632  0.00  0.00     0.065 C 
ATOM      5  C   UNL d   1     -33.836  20.272  23.776  0.00  0.00     0.077 C 
ENDROOT
BRANCH   1   6
ATOM      6  C   UNL d   1     -30.375  21.838  24.366  0.00  0.00     0.269 C 
ATOM      7  N   UNL d   1     -29.152  21.308  24.565  0.00  0.00    -0.320 N 
ATOM      8  H   UNL d   1     -29.065  20.394  24.880  0.00  0.00     0.169 HD
ATOM      9  O   UNL d   1     -30.489  23.013  24.072  0.00  0.00    -0.266 OA
BRANCH   7  10
ATOM     10  C   UNL d   1     -28.009  22.073  24.314  0.00  0.00     0.076 A 
ATOM     11  C   UNL d   1     -27.518  22.183  23.020  0.00  0.00     0.070 A 
ATOM     12  C   UNL d   1     -26.387  22.941  22.770  0.00  0.00     0.082 A 
ATOM     13  C   UNL d   1     -25.738  23.591  23.824  0.00  0.00     0.011 A 
ATOM     14  C   UNL d   1     -26.238  23.482  25.121  0.00  0.00     0.059 A 
ATOM     15  C   UNL d   1     -27.367  22.725  25.363  0.00  0.00     0.144 A 
ATOM     16  F   UNL d   1     -27.848  22.617  26.621  0.00  0.00    -0.204 F 
BRANCH  12  17
ATOM     17  O   UNL d   1     -25.906  23.049  21.504  0.00  0.00    -0.345 OA
BRANCH  17  18
ATOM     18  C   UNL d   1     -25.565  21.833  20.834  0.00  0.00     0.124 C 
ATOM     19  C   UNL d   1     -24.649  20.997  21.730  0.00  0.00     0.040 C 
BRANCH  18  20
ATOM     20  C   UNL d   1     -24.842  22.158  19.526  0.00  0.00     0.027 C 
ATOM     21  C   UNL d   1     -23.758  23.204  19.789  0.00  0.00     0.007 C 
ENDBRANCH  18  20
ENDBRANCH  17  18
ENDBRANCH  12  17
BRANCH  13  22
ATOM     22  C   UNL d   1     -24.523  24.400  23.562  0.00  0.00    -0.021 A 
ATOM     23  C   UNL d   1     -23.303  23.771  23.321  0.00  0.00     0.036 A 
ATOM     24  C   UNL d   1     -22.175  24.529  23.072  0.00  0.00     0.034 A 
ATOM     25  C   UNL d   1     -22.254  25.910  23.073  0.00  0.00     0.024 A 
ATOM     26 CL   UNL d   1     -20.656  23.748  22.764  0.00  0.00    -0.084 Cl
ATOM     27  C   UNL d   1     -23.462  26.540  23.317  0.00  0.00     0.003 A 
ATOM     28  C   UNL d   1     -24.595  25.792  23.562  0.00  0.00     0.012 A 
ENDBRANCH  13  22
ENDBRANCH   7  10
ENDBRANCH   1   6
BRANCH   4  29
ATOM     29  O   UNL d   1     -32.536  22.040  22.642  0.00  0.00    -0.364 OA
ATOM     30  H   UNL d   1     -32.789  22.949  22.857  0.00  0.00     0.217 HD
ENDBRANCH   4  29
TORSDOF 7
ENDMDL
