MODEL 1
REMARK VINA RESULT:     -10.1      0.000      0.000
REMARK  4 active torsions:
REMARK  status: ('A' for Active; 'I' for Inactive)
REMARK    1  A    between atoms: C_2  and  C_4 
REMARK    2  A    between atoms: C_4  and  C_7 
REMARK       I    between atoms: C_7  and  N_9 
REMARK    3  A    between atoms: N_9  and  C_10 
REMARK    4  A    between atoms: C_13  and  C_14 
ROOT
ATOM      1  C   UNL d   1     -32.379  20.441  25.722  0.00  0.00     0.253 C 
ATOM      2  C   UNL d   1     -31.883  19.083  25.999  0.00  0.00     0.081 C 
ATOM      3  N   UNL d   1     -31.501  18.034  26.214  0.00  0.00    -0.196 NA
ENDROOT
BRANCH   1   4
ATOM      4  C   UNL d   1     -33.451  20.379  24.666  0.00  0.00     0.149 C 
ATOM      5  C   UNL d   1     -33.100  20.614  23.220  0.00  0.00     0.093 C 
ATOM      6  O   UNL d   1     -34.593  20.139  24.979  0.00  0.00    -0.296 OA
ENDBRANCH   1   4
BRANCH   1   7
ATOM      7  C   UNL d   1     -31.241  21.300  25.234  0.00  0.00     0.247 C 
ATOM      8  O   UNL d   1     -31.427  22.474  24.997  0.00  0.00    -0.271 OA
ATOM      9  N   UNL d   1     -30.017  20.763  25.062  0.00  0.00    -0.326 N 
ATOM     10  H   UNL d   1     -29.884  19.810  25.179  0.00  0.00     0.169 HD
BRANCH   9  11
ATOM     11  C   UNL d   1     -28.937  21.581  24.716  0.00  0.00     0.034 A 
ATOM     12  C   UNL d   1     -28.759  21.975  23.396  0.00  0.00     0.030 A 
ATOM     13  C   UNL d   1     -27.696  22.782  23.052  0.00  0.00     0.014 A 
ATOM     14  C   UNL d   1     -26.797  23.203  24.032  0.00  0.00    -0.024 A 
ATOM     15  C   UNL d   1     -26.979  22.810  25.356  0.00  0.00     0.014 A 
ATOM     16  C   UNL d   1     -28.041  21.999  25.694  0.00  0.00     0.030 A 
BRANCH  14  17
ATOM     17  C   UNL d   1     -25.651  24.071  23.665  0.00  0.00    -0.003 A 
ATOM     18  C   UNL d   1     -24.631  23.577  22.853  0.00  0.00     0.066 A 
ATOM     19  C   UNL d   1     -23.566  24.390  22.515  0.00  0.00     0.056 A 
ATOM     20 CL   UNL d   1     -24.698  21.943  22.270  0.00  0.00    -0.082 Cl
ATOM     21  C   UNL d   1     -23.513  25.692  22.980  0.00  0.00     0.026 A 
ATOM     22 CL   UNL d   1     -22.293  23.778  21.505  0.00  0.00    -0.083 Cl
ATOM     23  C   UNL d   1     -24.524  26.187  23.785  0.00  0.00     0.003 A 
ATOM     24  C   UNL d   1     -25.594  25.385  24.125  0.00  0.00     0.014 A 
ENDBRANCH  14  17
ENDBRANCH   9  11
ENDBRANCH   1   7
TORSDOF 4
ENDMDL
