MODEL 1
REMARK VINA RESULT:      -9.9      0.000      0.000
REMARK  7 active torsions:
REMARK  status: ('A' for Active; 'I' for Inactive)
REMARK    1  A    between atoms: C_8  and  N_9 
REMARK       I    between atoms: N_9  and  C_10 
REMARK    2  A    between atoms: C_10  and  C_12 
REMARK    3  A    between atoms: C_16  and  N_17 
REMARK    4  A    between atoms: C_28  and  O_29 
REMARK    5  A    between atoms: O_29  and  C_30 
REMARK    6  A    between atoms: C_30  and  C_32 
REMARK    7  A    between atoms: C_32  and  O_34 
ROOT
ATOM      1  C   UNL d   1     -24.268  24.495  23.514  0.00  0.00     0.068 A 
ATOM      2  C   UNL d   1     -25.157  25.025  24.457  0.00  0.00     0.064 A 
ATOM      3  C   UNL d   1     -26.407  24.467  24.611  0.00  0.00     0.146 A 
ATOM      4  F   UNL d   1     -27.266  24.982  25.518  0.00  0.00    -0.204 F 
ATOM      5  C   UNL d   1     -26.786  23.370  23.839  0.00  0.00     0.104 A 
ATOM      6  C   UNL d   1     -25.908  22.836  22.905  0.00  0.00     0.073 A 
ATOM      7  C   UNL d   1     -24.652  23.392  22.738  0.00  0.00     0.087 A 
ENDROOT
BRANCH   1   8
ATOM      8  C   UNL d   1     -22.932  25.091  23.342  0.00  0.00     0.259 C 
ATOM      9  N   UNL d   1     -21.862  24.529  23.939  0.00  0.00    -0.320 N 
ATOM     10  H   UNL d   1     -21.957  23.686  24.410  0.00  0.00     0.169 HD
ATOM     11  O   UNL d   1     -22.794  26.090  22.663  0.00  0.00    -0.267 OA
BRANCH   9  12
ATOM     12  C   UNL d   1     -20.614  25.160  23.878  0.00  0.00     0.080 A 
ATOM     13  C   UNL d   1     -20.290  26.149  24.795  0.00  0.00    -0.032 A 
ATOM     14  C   UNL d   1     -21.280  26.545  25.860  0.00  0.00     0.050 C 
ATOM     15  C   UNL d   1     -19.055  26.765  24.736  0.00  0.00     0.009 A 
ATOM     16  C   UNL d   1     -18.146  26.407  23.758  0.00  0.00     0.004 A 
ATOM     17  C   UNL d   1     -18.466  25.421  22.841  0.00  0.00     0.045 A 
ATOM     18  C   UNL d   1     -19.697  24.797  22.897  0.00  0.00     0.143 A 
ATOM     19  F   UNL d   1     -20.009  23.834  22.002  0.00  0.00    -0.204 F 
ENDBRANCH   9  12
ENDBRANCH   1   8
BRANCH   7  20
ATOM     20  O   UNL d   1     -23.792  22.869  21.826  0.00  0.00    -0.343 OA
BRANCH  20  21
ATOM     21  C   UNL d   1     -23.875  23.377  20.492  0.00  0.00     0.153 C 
ATOM     22  C   UNL d   1     -24.065  22.215  19.516  0.00  0.00     0.042 C 
BRANCH  21  23
ATOM     23  C   UNL d   1     -22.585  24.124  20.151  0.00  0.00     0.143 C 
ATOM     24  C   UNL d   1     -21.819  23.356  19.073  0.00  0.00     0.042 C 
BRANCH  23  25
ATOM     25  O   UNL d   1     -22.904  25.431  19.669  0.00  0.00    -0.393 OA
ATOM     26  H   UNL d   1     -23.408  25.970  20.295  0.00  0.00     0.210 HD
ENDBRANCH  23  25
ENDBRANCH  21  23
ENDBRANCH  20  21
ENDBRANCH   7  20
BRANCH   5  27
ATOM     27  N   UNL d   1     -28.053  22.807  24.005  0.00  0.00    -0.178 N 
ATOM     28  C   UNL d   1     -28.457  22.038  25.040  0.00  0.00     0.351 A 
ATOM     29  N   UNL d   1     -29.746  21.728  24.828  0.00  0.00    -0.284 N 
ATOM     30  O   UNL d   1     -27.779  21.692  25.989  0.00  0.00    -0.244 OA
ATOM     31  C   UNL d   1     -30.135  22.281  23.626  0.00  0.00     0.131 A 
ATOM     32  C   UNL d   1     -30.636  20.958  25.706  0.00  0.00     0.135 C 
ATOM     33  N   UNL d   1     -29.142  22.940  23.132  0.00  0.00    -0.149 NA
ATOM     34  C   UNL d   1     -31.510  22.103  23.024  0.00  0.00     0.081 C 
ATOM     35  C   UNL d   1     -32.460  21.648  24.141  0.00  0.00     0.009 C 
ATOM     36  C   UNL d   1     -31.832  20.464  24.883  0.00  0.00     0.021 C 
ENDBRANCH   5  27
TORSDOF 7
ENDMDL
