MODEL 1
REMARK VINA RESULT:     -12.6      0.000      0.000
REMARK  5 active torsions:
REMARK  status: ('A' for Active; 'I' for Inactive)
REMARK       I    between atoms: N_1  and  C_2 
REMARK    1  A    between atoms: C_2  and  C_4 
REMARK    2  A    between atoms: C_12  and  C_13 
REMARK    3  A    between atoms: C_16  and  C_17 
REMARK    4  A    between atoms: C_21  and  N_22 
REMARK       I    between atoms: N_22  and  C_23 
REMARK    5  A    between atoms: C_23  and  C_25 
ROOT
ATOM      1  C   UNL d   1     -27.912  22.330  23.300  0.00  0.00     0.049 A 
ATOM      2  C   UNL d   1     -27.274  23.268  24.116  0.00  0.00     0.019 A 
ATOM      3  C   UNL d   1     -25.985  23.661  23.836  0.00  0.00     0.013 A 
ATOM      4  C   UNL d   1     -25.314  23.125  22.737  0.00  0.00    -0.023 A 
ATOM      5  C   UNL d   1     -25.949  22.194  21.916  0.00  0.00     0.055 A 
ATOM      6  C   UNL d   1     -27.238  21.793  22.197  0.00  0.00     0.131 A 
ATOM      7  F   UNL d   1     -27.853  20.886  21.406  0.00  0.00    -0.205 F 
ENDROOT
BRANCH   1   8
ATOM      8  C   UNL d   1     -29.295  21.909  23.599  0.00  0.00     0.142 A 
ATOM      9  N   UNL d   1     -29.691  21.256  24.735  0.00  0.00    -0.338 N 
ATOM     10  C   UNL d   1     -31.053  21.047  24.626  0.00  0.00     0.067 A 
ATOM     11  H   UNL d   1     -29.124  20.990  25.475  0.00  0.00     0.167 HD
ATOM     12  C   UNL d   1     -32.000  20.448  25.443  0.00  0.00     0.074 A 
ATOM     13  C   UNL d   1     -31.437  21.599  23.391  0.00  0.00     0.101 A 
ATOM     14  C   UNL d   1     -33.325  20.392  25.048  0.00  0.00     0.119 A 
ATOM     15  C   UNL d   1     -33.723  20.930  23.836  0.00  0.00     0.061 A 
ATOM     16  F   UNL d   1     -34.240  19.806  25.852  0.00  0.00    -0.206 F 
ATOM     17  C   UNL d   1     -32.791  21.538  22.996  0.00  0.00     0.065 A 
ATOM     18  N   UNL d   1     -30.332  22.110  22.819  0.00  0.00    -0.227 NA
BRANCH  17  19
ATOM     19  C   UNL d   1     -33.216  22.110  21.708  0.00  0.00     0.251 C 
ATOM     20  N   UNL d   1     -32.417  22.007  20.627  0.00  0.00    -0.366 N 
ATOM     21  H   UNL d   1     -31.562  21.554  20.698  0.00  0.00     0.159 HD
ATOM     22  H   UNL d   1     -32.697  22.384  19.779  0.00  0.00     0.159 HD
ATOM     23  O   UNL d   1     -34.288  22.679  21.618  0.00  0.00    -0.268 OA
ENDBRANCH  17  19
ENDBRANCH   1   8
BRANCH   4  24
ATOM     24  C   UNL d   1     -23.925  23.551  22.438  0.00  0.00    -0.024 A 
ATOM     25  C   UNL d   1     -23.091  23.987  23.463  0.00  0.00     0.042 A 
ATOM     26  C   UNL d   1     -21.794  24.383  23.176  0.00  0.00     0.035 A 
ATOM     27  C   UNL d   1     -21.330  24.344  21.866  0.00  0.00     0.029 A 
ATOM     28  C   UNL d   1     -22.160  23.914  20.848  0.00  0.00     0.003 A 
ATOM     29  C   UNL d   1     -23.450  23.514  21.126  0.00  0.00     0.012 A 
BRANCH  26  30
ATOM     30  N   UNL d   1     -20.951  24.823  24.203  0.00  0.00    -0.327 N 
ATOM     31  C   UNL d   1     -21.015  26.101  24.626  0.00  0.00     0.226 C 
ATOM     32  O   UNL d   1     -21.860  26.847  24.178  0.00  0.00    -0.273 OA
ATOM     33  H   UNL d   1     -20.320  24.209  24.609  0.00  0.00     0.169 HD
BRANCH  31  34
ATOM     34  C   UNL d   1     -20.038  26.603  25.658  0.00  0.00     0.078 A 
ATOM     35  C   UNL d   1     -20.413  27.869  26.430  0.00  0.00     0.015 A 
ATOM     36  C   UNL d   1     -20.451  26.507  27.128  0.00  0.00     0.015 A 
ENDBRANCH  31  34
ENDBRANCH  26  30
ENDBRANCH   4  24
TORSDOF 5
ENDMDL
