MODEL 1
REMARK VINA RESULT:     -10.3      0.000      0.000
REMARK  6 active torsions:
REMARK  status: ('A' for Active; 'I' for Inactive)
REMARK    1  A    between atoms: C_2  and  O_3 
REMARK    2  A    between atoms: C_2  and  C_31 
REMARK    3  A    between atoms: O_3  and  C_4 
REMARK    4  A    between atoms: C_6  and  N_7 
REMARK    5  A    between atoms: C_20  and  C_21 
REMARK       I    between atoms: C_21  and  N_23 
REMARK    6  A    between atoms: N_23  and  C_24 
ROOT
ATOM      1  C   UNL d   1     -24.587  23.599  22.939  0.00  0.00     0.087 A 
ATOM      2  C   UNL d   1     -25.789  22.957  23.183  0.00  0.00     0.073 A 
ATOM      3  C   UNL d   1     -26.697  23.500  24.081  0.00  0.00     0.104 A 
ATOM      4  C   UNL d   1     -26.406  24.697  24.737  0.00  0.00     0.146 A 
ATOM      5  F   UNL d   1     -27.298  25.222  25.605  0.00  0.00    -0.204 F 
ATOM      6  C   UNL d   1     -25.211  25.339  24.506  0.00  0.00     0.064 A 
ATOM      7  C   UNL d   1     -24.291  24.799  23.601  0.00  0.00     0.068 A 
ENDROOT
BRANCH   7   8
ATOM      8  C   UNL d   1     -23.014  25.488  23.346  0.00  0.00     0.254 C 
ATOM      9  O   UNL d   1     -23.000  26.528  22.715  0.00  0.00    -0.268 OA
ATOM     10  N   UNL d   1     -21.862  24.967  23.812  0.00  0.00    -0.352 N 
ATOM     11  H   UNL d   1     -21.873  24.137  24.316  0.00  0.00     0.163 HD
BRANCH  10  12
ATOM     12  C   UNL d   1     -20.593  25.653  23.559  0.00  0.00     0.088 C 
ATOM     13  C   UNL d   1     -19.958  26.064  24.891  0.00  0.00     0.055 C 
ATOM     14  C   UNL d   1     -18.604  26.725  24.623  0.00  0.00     0.274 C 
ATOM     15  N   UNL d   1     -17.729  25.783  23.913  0.00  0.00     0.084 N 
ATOM     16  C   UNL d   1     -18.296  25.411  22.610  0.00  0.00     0.274 C 
ATOM     17  C   UNL d   1     -16.376  26.334  23.761  0.00  0.00     0.309 C 
ATOM     18  C   UNL d   1     -19.639  24.711  22.817  0.00  0.00     0.055 C 
ENDBRANCH  10  12
ENDBRANCH   7   8
BRANCH   1  19
ATOM     19  O   UNL d   1     -23.698  23.069  22.061  0.00  0.00    -0.336 OA
BRANCH  19  20
ATOM     20  C   UNL d   1     -23.951  23.286  20.672  0.00  0.00     0.232 C 
ATOM     21  C   UNL d   1     -22.659  23.735  19.983  0.00  0.00     0.049 C 
BRANCH  20  22
ATOM     22  C   UNL d   1     -24.443  21.987  20.033  0.00  0.00     0.413 C 
ATOM     23  F   UNL d   1     -24.248  20.926  20.925  0.00  0.00    -0.168 F 
ATOM     24  F   UNL d   1     -25.805  22.099  19.734  0.00  0.00    -0.168 F 
ATOM     25  F   UNL d   1     -23.726  21.744  18.856  0.00  0.00    -0.168 F 
ENDBRANCH  20  22
ENDBRANCH  19  20
ENDBRANCH   1  19
BRANCH   3  26
ATOM     26  N   UNL d   1     -27.909  22.850  24.325  0.00  0.00    -0.178 N 
ATOM     27  C   UNL d   1     -28.219  22.119  25.417  0.00  0.00     0.351 A 
ATOM     28  N   UNL d   1     -29.485  21.695  25.271  0.00  0.00    -0.284 N 
ATOM     29  O   UNL d   1     -27.485  21.886  26.362  0.00  0.00    -0.244 OA
ATOM     30  C   UNL d   1     -29.952  22.137  24.049  0.00  0.00     0.131 A 
ATOM     31  C   UNL d   1     -30.282  20.916  26.224  0.00  0.00     0.135 C 
ATOM     32  N   UNL d   1     -29.027  22.831  23.478  0.00  0.00    -0.149 NA
ATOM     33  C   UNL d   1     -31.329  21.823  23.513  0.00  0.00     0.081 C 
ATOM     34  C   UNL d   1     -32.205  21.372  24.691  0.00  0.00     0.009 C 
ATOM     35  C   UNL d   1     -31.463  20.286  25.477  0.00  0.00     0.021 C 
ENDBRANCH   3  26
TORSDOF 6
ENDMDL
