MODEL 1
REMARK VINA RESULT:     -12.1      0.000      0.000
REMARK  4 active torsions:
REMARK  status: ('A' for Active; 'I' for Inactive)
REMARK       I    between atoms: C_2  and  N_3 
REMARK    1  A    between atoms: C_2  and  C_19 
REMARK    2  A    between atoms: N_3  and  C_4 
REMARK    3  A    between atoms: N_12  and  C_13 
REMARK    4  A    between atoms: C_20  and  O_21 
ROOT
ATOM      1  C   UNL d   1     -26.686  22.995  23.530  0.00  0.00     0.037 A 
ATOM      2  C   UNL d   1     -27.769  22.739  22.690  0.00  0.00     0.032 A 
ATOM      3  C   UNL d   1     -28.947  22.268  23.198  0.00  0.00     0.036 A 
ATOM      4  C   UNL d   1     -29.073  22.040  24.563  0.00  0.00     0.091 A 
ATOM      5  C   UNL d   1     -27.990  22.293  25.424  0.00  0.00     0.111 A 
ATOM      6  C   UNL d   1     -26.787  22.770  24.888  0.00  0.00     0.065 A 
ATOM      7  N   UNL d   1     -28.385  21.987  26.681  0.00  0.00    -0.130 NA
ATOM      8  N   UNL d   1     -29.603  21.572  26.678  0.00  0.00    -0.060 NA
ATOM      9  N   UNL d   1     -30.097  21.582  25.365  0.00  0.00    -0.213 N 
ENDROOT
BRANCH   1  10
ATOM     10  N   UNL d   1     -25.487  23.477  22.992  0.00  0.00    -0.323 N 
ATOM     11  C   UNL d   1     -24.811  22.742  22.086  0.00  0.00     0.263 C 
ATOM     12  O   UNL d   1     -25.199  21.624  21.798  0.00  0.00    -0.267 OA
ATOM     13  H   UNL d   1     -25.142  24.340  23.270  0.00  0.00     0.169 HD
BRANCH  11  14
ATOM     14  C   UNL d   1     -23.613  23.287  21.449  0.00  0.00     0.115 A 
ATOM     15  C   UNL d   1     -22.422  23.678  22.093  0.00  0.00     0.078 A 
ATOM     16  N   UNL d   1     -21.572  24.127  21.125  0.00  0.00    -0.242 N 
ATOM     17  C   UNL d   1     -22.022  23.677  23.436  0.00  0.00     0.033 A 
ATOM     18  N   UNL d   1     -22.225  24.016  19.891  0.00  0.00    -0.141 NA
ATOM     19  C   UNL d   1     -20.330  24.575  21.459  0.00  0.00     0.119 A 
ATOM     20  C   UNL d   1     -23.426  23.523  20.071  0.00  0.00     0.200 A 
ATOM     21  C   UNL d   1     -19.922  24.581  22.749  0.00  0.00     0.019 A 
ATOM     22  C   UNL d   1     -20.775  24.127  23.762  0.00  0.00     0.004 A 
BRANCH  20  23
ATOM     23  O   UNL d   1     -24.336  23.276  19.095  0.00  0.00    -0.343 OA
ATOM     24  H   UNL d   1     -24.287  23.889  18.347  0.00  0.00     0.219 HD
ENDBRANCH  20  23
ENDBRANCH  11  14
ENDBRANCH   1  10
BRANCH   9  25
ATOM     25  C   UNL d   1     -31.379  21.200  24.949  0.00  0.00     0.060 A 
ATOM     26  C   UNL d   1     -32.033  20.152  25.584  0.00  0.00     0.031 A 
ATOM     27  C   UNL d   1     -33.297  19.777  25.171  0.00  0.00     0.002 A 
ATOM     28  C   UNL d   1     -33.911  20.446  24.128  0.00  0.00     0.000 A 
ATOM     29  C   UNL d   1     -33.263  21.490  23.494  0.00  0.00     0.002 A 
ATOM     30  C   UNL d   1     -32.001  21.873  23.905  0.00  0.00     0.031 A 
ENDBRANCH   9  25
TORSDOF 4
ENDMDL
