MODEL 1
REMARK VINA RESULT:     -12.3      0.000      0.000
REMARK  6 active torsions:
REMARK  status: ('A' for Active; 'I' for Inactive)
REMARK    1  A    between atoms: C_5  and  C_6 
REMARK    2  A    between atoms: C_6  and  O_8 
REMARK    3  A    between atoms: C_10  and  C_11 
REMARK    4  A    between atoms: C_16  and  C_17 
REMARK    5  A    between atoms: C_20  and  C_21 
REMARK    6  A    between atoms: C_21  and  N_22 
ROOT
ATOM      1  C   UNL d   1     -27.017  22.629  22.950  0.00  0.00     0.058 A 
ATOM      2  C   UNL d   1     -26.269  21.900  22.023  0.00  0.00     0.170 A 
ATOM      3  F   UNL d   1     -26.841  20.878  21.349  0.00  0.00    -0.202 F 
ATOM      4  C   UNL d   1     -24.947  22.225  21.793  0.00  0.00     0.170 A 
ATOM      5  F   UNL d   1     -24.225  21.523  20.892  0.00  0.00    -0.202 F 
ATOM      6  C   UNL d   1     -24.354  23.277  22.494  0.00  0.00     0.058 A 
ATOM      7  C   UNL d   1     -25.101  24.003  23.424  0.00  0.00     0.170 A 
ATOM      8  F   UNL d   1     -24.527  25.021  24.103  0.00  0.00    -0.202 F 
ATOM      9  C   UNL d   1     -26.425  23.681  23.651  0.00  0.00     0.170 A 
ATOM     10  F   UNL d   1     -27.146  24.383  24.551  0.00  0.00    -0.202 F 
ENDROOT
BRANCH   1  11
ATOM     11  C   UNL d   1     -28.437  22.283  23.193  0.00  0.00    -0.016 A 
ATOM     12  C   UNL d   1     -28.818  21.737  24.419  0.00  0.00     0.033 A 
ATOM     13  C   UNL d   1     -30.148  21.409  24.657  0.00  0.00     0.069 A 
ATOM     14  C   UNL d   1     -31.112  21.630  23.649  0.00  0.00     0.102 A 
ATOM     15  N   UNL d   1     -32.442  21.422  23.578  0.00  0.00    -0.233 NA
ATOM     16  C   UNL d   1     -30.714  22.180  22.418  0.00  0.00     0.064 A 
ATOM     17  C   UNL d   1     -32.886  21.799  22.412  0.00  0.00     0.101 A 
ATOM     18  C   UNL d   1     -34.323  21.715  21.968  0.00  0.00     0.091 C 
ATOM     19  N   UNL d   1     -31.862  22.275  21.656  0.00  0.00    -0.343 N 
ATOM     20  H   UNL d   1     -31.927  22.616  20.750  0.00  0.00     0.167 HD
ATOM     21  C   UNL d   1     -29.385  22.502  22.197  0.00  0.00     0.044 A 
BRANCH  13  22
ATOM     22  C   UNL d   1     -30.549  20.832  25.952  0.00  0.00     0.178 C 
ATOM     23  O   UNL d   1     -30.545  21.523  26.952  0.00  0.00    -0.646 OA
BRANCH  22  24
ATOM     24  O   UNL d   1     -30.919  19.538  26.028  0.00  0.00    -0.773 OA
ATOM     25  H   UNL d   1     -31.868  19.353  26.046  0.00  0.00     0.167 HD
ENDBRANCH  22  24
ENDBRANCH  13  22
ENDBRANCH   1  11
BRANCH   6  26
ATOM     26  C   UNL d   1     -22.934  23.624  22.250  0.00  0.00    -0.020 A 
ATOM     27  C   UNL d   1     -22.583  24.390  21.139  0.00  0.00     0.013 A 
ATOM     28  C   UNL d   1     -21.259  24.711  20.917  0.00  0.00     0.010 A 
ATOM     29  C   UNL d   1     -20.282  24.274  21.793  0.00  0.00    -0.030 A 
ATOM     30  C   UNL d   1     -20.624  23.514  22.896  0.00  0.00     0.010 A 
ATOM     31  C   UNL d   1     -21.946  23.191  23.132  0.00  0.00     0.013 A 
BRANCH  29  32
ATOM     32  C   UNL d   1     -18.838  24.629  21.544  0.00  0.00     0.311 C 
BRANCH  32  33
ATOM     33  N   UNL d   1     -18.205  25.016  22.812  0.00  0.00     0.092 N 
ATOM     34  C   UNL d   1     -16.807  25.434  22.597  0.00  0.00     0.273 C 
ATOM     35  C   UNL d   1     -16.666  26.866  23.154  0.00  0.00     0.032 C 
ATOM     36  C   UNL d   1     -17.842  26.966  24.162  0.00  0.00     0.032 C 
ATOM     37  C   UNL d   1     -18.936  26.132  23.450  0.00  0.00     0.273 C 
ENDBRANCH  32  33
ENDBRANCH  29  32
ENDBRANCH   6  26
TORSDOF 6
ENDMDL
