MODEL 1
REMARK VINA RESULT:      -9.4      0.000      0.000
REMARK  7 active torsions:
REMARK  status: ('A' for Active; 'I' for Inactive)
REMARK    1  A    between atoms: C_2  and  N_3 
REMARK    2  A    between atoms: C_4  and  C_5 
REMARK    3  A    between atoms: C_5  and  O_6 
REMARK    4  A    between atoms: N_8  and  C_9 
REMARK    5  A    between atoms: C_12  and  C_13 
REMARK    6  A    between atoms: N_17  and  C_18 
REMARK    7  A    between atoms: C_23  and  C_24 
ROOT
ATOM      1  C   UNL d   1     -28.835  22.172  22.106  0.00  0.00     0.195 A 
ATOM      2  N   UNL d   1     -28.184  22.938  22.965  0.00  0.00    -0.225 NA
ATOM      3  C   UNL d   1     -26.866  23.092  22.886  0.00  0.00     0.083 A 
ATOM      4  C   UNL d   1     -26.131  23.932  23.832  0.00  0.00    -0.009 A 
ATOM      5  C   UNL d   1     -24.800  24.061  23.707  0.00  0.00     0.110 A 
ATOM      6  N   UNL d   1     -24.092  23.432  22.722  0.00  0.00    -0.288 N 
ATOM      7  C   UNL d   1     -24.686  22.639  21.807  0.00  0.00     0.264 A 
ATOM      8  O   UNL d   1     -24.023  22.094  20.942  0.00  0.00    -0.267 OA
ATOM      9  C   UNL d   1     -26.134  22.440  21.866  0.00  0.00     0.065 A 
ATOM     10  C   UNL d   1     -26.810  21.630  20.947  0.00  0.00     0.066 A 
ATOM     11  C   UNL d   1     -28.169  21.501  21.076  0.00  0.00     0.165 A 
ATOM     12  F   UNL d   1     -28.862  20.728  20.211  0.00  0.00    -0.202 F 
ENDROOT
BRANCH   1  13
ATOM     13  N   UNL d   1     -30.215  22.033  22.229  0.00  0.00    -0.159 N 
ATOM     14  N   UNL d   1     -31.150  22.092  21.187  0.00  0.00    -0.145 NA
ATOM     15  C   UNL d   1     -32.329  21.920  21.694  0.00  0.00     0.154 A 
ATOM     16  N   UNL d   1     -32.207  21.749  23.052  0.00  0.00    -0.283 N 
ATOM     17  C   UNL d   1     -30.900  21.821  23.372  0.00  0.00     0.352 A 
ATOM     18  O   UNL d   1     -30.424  21.717  24.488  0.00  0.00    -0.244 OA
BRANCH  15  19
ATOM     19  C   UNL d   1     -33.623  21.911  20.922  0.00  0.00     0.244 C 
BRANCH  19  20
ATOM     20  O   UNL d   1     -34.491  22.925  21.434  0.00  0.00    -0.393 OA
ATOM     21  H   UNL d   1     -35.382  22.612  21.641  0.00  0.00     0.209 HD
ENDBRANCH  19  20
ENDBRANCH  15  19
BRANCH  16  22
ATOM     22  C   UNL d   1     -33.309  21.528  23.990  0.00  0.00     0.131 C 
ATOM     23  C   UNL d   1     -33.440  20.030  24.278  0.00  0.00     0.027 C 
ENDBRANCH  16  22
ENDBRANCH   1  13
BRANCH   4  24
ATOM     24  C   UNL d   1     -26.862  24.649  24.938  0.00  0.00     0.014 C 
ATOM     25  C   UNL d   1     -27.007  23.717  26.142  0.00  0.00     0.015 C 
ATOM     26  C   UNL d   1     -26.071  25.893  25.348  0.00  0.00     0.015 C 
ENDBRANCH   4  24
BRANCH   6  27
ATOM     27  C   UNL d   1     -22.705  23.618  22.660  0.00  0.00     0.053 A 
ATOM     28  C   UNL d   1     -22.160  24.468  21.707  0.00  0.00     0.033 A 
ATOM     29  C   UNL d   1     -20.792  24.655  21.652  0.00  0.00     0.015 A 
ATOM     30  C   UNL d   1     -19.966  23.986  22.536  0.00  0.00     0.001 A 
ATOM     31  C   UNL d   1     -20.506  23.133  23.482  0.00  0.00     0.002 A 
ATOM     32  C   UNL d   1     -21.873  22.948  23.546  0.00  0.00     0.031 A 
BRANCH  28  33
ATOM     33  C   UNL d   1     -23.060  25.194  20.740  0.00  0.00     0.389 C 
ATOM     34  F   UNL d   1     -23.531  26.370  21.334  0.00  0.00    -0.209 F 
ATOM     35  F   UNL d   1     -22.341  25.512  19.582  0.00  0.00    -0.209 F 
ENDBRANCH  28  33
ENDBRANCH   6  27
TORSDOF 7
ENDMDL
