MODEL 1
REMARK VINA RESULT:      -9.7      0.000      0.000
REMARK  7 active torsions:
REMARK  status: ('A' for Active; 'I' for Inactive)
REMARK    1  A    between atoms: C_2  and  C_3 
REMARK    2  A    between atoms: C_4  and  C_5 
REMARK    3  A    between atoms: C_15  and  C_16 
REMARK    4  A    between atoms: C_16  and  C_17 
REMARK    5  A    between atoms: C_18  and  O_19 
REMARK    6  A    between atoms: C_24  and  C_25 
REMARK    7  A    between atoms: C_27  and  O_28 
ROOT
ATOM      1  C   UNL d   1     -24.610  21.572  21.197  0.00  0.00     0.048 C 
ATOM      2  C   UNL d   1     -24.997  22.556  22.271  0.00  0.00    -0.066 C 
ATOM      3  C   UNL d   1     -26.275  22.711  22.601  0.00  0.00    -0.015 C 
ENDROOT
BRANCH   3   4
ATOM      4  C   UNL d   1     -27.341  21.933  21.872  0.00  0.00     0.072 C 
BRANCH   4   5
ATOM      5  C   UNL d   1     -28.600  21.910  22.699  0.00  0.00     0.014 A 
ATOM      6  C   UNL d   1     -29.825  22.151  22.103  0.00  0.00     0.088 A 
ATOM      7  C   UNL d   1     -30.996  22.124  22.882  0.00  0.00     0.043 A 
ATOM      8  C   UNL d   1     -30.909  21.863  24.256  0.00  0.00    -0.021 A 
ATOM      9  C   UNL d   1     -29.692  21.632  24.833  0.00  0.00     0.074 A 
ATOM     10  C   UNL d   1     -32.158  21.838  25.099  0.00  0.00     0.051 C 
ATOM     11  C   UNL d   1     -28.533  21.653  24.062  0.00  0.00     0.097 A 
ATOM     12 CL   UNL d   1     -29.592  21.309  26.536  0.00  0.00    -0.081 Cl
BRANCH   6  13
ATOM     13  O   UNL d   1     -29.897  22.409  20.773  0.00  0.00    -0.359 OA
ATOM     14  H   UNL d   1     -29.042  22.386  20.321  0.00  0.00     0.217 HD
ENDBRANCH   6  13
BRANCH   7  15
ATOM     15  C   UNL d   1     -32.300  22.374  22.262  0.00  0.00     0.273 C 
ATOM     16  O   UNL d   1     -32.579  21.849  21.204  0.00  0.00    -0.301 OA
ENDBRANCH   7  15
BRANCH  11  17
ATOM     17  O   UNL d   1     -27.329  21.422  24.645  0.00  0.00    -0.358 OA
ATOM     18  H   UNL d   1     -26.986  20.530  24.499  0.00  0.00     0.217 HD
ENDBRANCH  11  17
ENDBRANCH   4   5
ENDBRANCH   3   4
BRANCH   2  19
ATOM     19  C   UNL d   1     -23.961  23.346  22.953  0.00  0.00     0.003 C 
ATOM     20  C   UNL d   1     -23.174  24.155  22.252  0.00  0.00    -0.016 C 
BRANCH  20  21
ATOM     21  C   UNL d   1     -22.111  24.964  22.951  0.00  0.00    -0.013 C 
ATOM     22  C   UNL d   1     -21.170  24.022  23.710  0.00  0.00     0.063 C 
ATOM     23  C   UNL d   1     -20.196  24.858  24.511  0.00  0.00     0.131 C 
ATOM     24  C   UNL d   1     -20.403  23.150  22.714  0.00  0.00     0.019 C 
ATOM     25  C   UNL d   1     -20.750  25.941  25.409  0.00  0.00     0.079 C 
ATOM     26  O   UNL d   1     -19.006  24.665  24.433  0.00  0.00    -0.298 OA
ATOM     27  C   UNL d   1     -21.706  26.813  24.588  0.00  0.00     0.013 C 
ATOM     28  C   UNL d   1     -22.771  25.927  23.939  0.00  0.00    -0.006 C 
ATOM     29  C   UNL d   1     -23.779  26.806  23.195  0.00  0.00     0.011 C 
ATOM     30  C   UNL d   1     -21.312  25.759  21.917  0.00  0.00     0.021 C 
ENDBRANCH  20  21
ENDBRANCH   2  19
TORSDOF 7
ENDMDL
