MODEL 1
REMARK VINA RESULT:     -10.9      0.000      0.000
REMARK  5 active torsions:
REMARK  status: ('A' for Active; 'I' for Inactive)
REMARK    1  A    between atoms: C_2  and  O_3 
REMARK    2  A    between atoms: C_2  and  C_4 
REMARK    3  A    between atoms: C_5  and  O_6 
REMARK    4  A    between atoms: C_7  and  C_8 
REMARK    5  A    between atoms: C_19  and  C_20 
ROOT
ATOM      1  C   UNL d   1     -29.756  21.812  24.581  0.00  0.00     0.085 A 
ATOM      2  C   UNL d   1     -28.429  22.239  24.535  0.00  0.00     0.113 A 
ATOM      3  C   UNL d   1     -27.902  22.719  23.317  0.00  0.00     0.102 A 
ATOM      4  N   UNL d   1     -28.619  22.771  22.217  0.00  0.00    -0.245 NA
ATOM      5  C   UNL d   1     -29.894  22.380  22.172  0.00  0.00     0.069 A 
ATOM      6  C   UNL d   1     -30.630  22.451  20.975  0.00  0.00     0.033 A 
ATOM      7  C   UNL d   1     -31.930  22.046  20.957  0.00  0.00     0.018 A 
ATOM      8  C   UNL d   1     -32.547  21.559  22.107  0.00  0.00     0.048 A 
ATOM      9  C   UNL d   1     -31.865  21.477  23.285  0.00  0.00     0.031 A 
ATOM     10  C   UNL d   1     -30.528  21.884  23.338  0.00  0.00     0.013 A 
ENDROOT
BRANCH   3  11
ATOM     11  C   UNL d   1     -26.493  23.174  23.277  0.00  0.00    -0.004 A 
ATOM     12  C   UNL d   1     -26.136  24.397  23.845  0.00  0.00     0.015 A 
ATOM     13  C   UNL d   1     -24.822  24.816  23.805  0.00  0.00     0.024 A 
ATOM     14  C   UNL d   1     -23.858  24.025  23.202  0.00  0.00     0.034 A 
ATOM     15  C   UNL d   1     -24.207  22.811  22.636  0.00  0.00     0.024 A 
ATOM     16 CL   UNL d   1     -22.207  24.558  23.155  0.00  0.00    -0.084 Cl
ATOM     17  C   UNL d   1     -25.519  22.384  22.666  0.00  0.00     0.015 A 
ENDBRANCH   3  11
BRANCH   2  18
ATOM     18  O   UNL d   1     -27.656  22.195  25.647  0.00  0.00    -0.357 OA
ATOM     19  H   UNL d   1     -27.256  23.043  25.880  0.00  0.00     0.217 HD
ENDBRANCH   2  18
BRANCH   1  20
ATOM     20  C   UNL d   1     -30.358  21.308  25.828  0.00  0.00     0.180 C 
ATOM     21  O   UNL d   1     -31.196  21.970  26.409  0.00  0.00    -0.646 OA
BRANCH  20  22
ATOM     22  O   UNL d   1     -29.981  20.113  26.324  0.00  0.00    -0.773 OA
ATOM     23  H   UNL d   1     -30.461  19.786  27.097  0.00  0.00     0.167 HD
ENDBRANCH  20  22
ENDBRANCH   1  20
BRANCH   8  24
ATOM     24  C   UNL d   1     -33.987  21.120  22.048  0.00  0.00     0.417 C 
ATOM     25  F   UNL d   1     -34.392  20.677  23.312  0.00  0.00    -0.166 F 
ATOM     26  F   UNL d   1     -34.788  22.197  21.653  0.00  0.00    -0.166 F 
ATOM     27  F   UNL d   1     -34.119  20.077  21.124  0.00  0.00    -0.166 F 
ENDBRANCH   8  24
TORSDOF 5
ENDMDL
