MODEL 1
REMARK VINA RESULT:      -7.8      0.000      0.000
REMARK  8 active torsions:
REMARK  status: ('A' for Active; 'I' for Inactive)
REMARK    1  A    between atoms: C_6  and  C_7 
REMARK    2  A    between atoms: C_7  and  O_9 
REMARK    3  A    between atoms: C_10  and  N_11 
REMARK       I    between atoms: N_11  and  C_12 
REMARK    4  A    between atoms: C_12  and  C_14 
REMARK    5  A    between atoms: C_18  and  N_19 
REMARK    6  A    between atoms: C_30  and  O_31 
REMARK    7  A    between atoms: O_31  and  C_32 
REMARK    8  A    between atoms: C_32  and  C_34 
ROOT
ATOM      1  C   UNL d   1     -19.801  26.968  25.587  0.00  0.00     0.068 A 
ATOM      2  C   UNL d   1     -21.172  27.206  25.447  0.00  0.00     0.064 A 
ATOM      3  C   UNL d   1     -21.915  26.448  24.570  0.00  0.00     0.146 A 
ATOM      4  F   UNL d   1     -23.240  26.675  24.438  0.00  0.00    -0.204 F 
ATOM      5  C   UNL d   1     -21.302  25.447  23.816  0.00  0.00     0.104 A 
ATOM      6  C   UNL d   1     -19.941  25.208  23.945  0.00  0.00     0.073 A 
ATOM      7  C   UNL d   1     -19.186  25.965  24.824  0.00  0.00     0.087 A 
ENDROOT
BRANCH   1   8
ATOM      8  C   UNL d   1     -19.004  27.772  26.530  0.00  0.00     0.259 C 
ATOM      9  N   UNL d   1     -18.271  27.163  27.482  0.00  0.00    -0.321 N 
ATOM     10  H   UNL d   1     -18.202  26.196  27.497  0.00  0.00     0.169 HD
ATOM     11  O   UNL d   1     -19.010  28.986  26.449  0.00  0.00    -0.267 OA
BRANCH   9  12
ATOM     12  C   UNL d   1     -17.612  27.923  28.445  0.00  0.00     0.058 A 
ATOM     13  C   UNL d   1     -16.293  28.308  28.247  0.00  0.00    -0.034 A 
ATOM     14  C   UNL d   1     -15.572  27.904  26.987  0.00  0.00     0.050 C 
ATOM     15  C   UNL d   1     -15.644  29.065  29.202  0.00  0.00     0.009 A 
ATOM     16  C   UNL d   1     -16.296  29.437  30.366  0.00  0.00     0.002 A 
ATOM     17  C   UNL d   1     -17.604  29.060  30.581  0.00  0.00     0.021 A 
ATOM     18  C   UNL d   1     -18.277  28.298  29.623  0.00  0.00     0.065 A 
BRANCH  18  19
ATOM     19  C   UNL d   1     -19.675  27.890  29.848  0.00  0.00     0.178 C 
ATOM     20  O   UNL d   1     -20.560  28.723  29.837  0.00  0.00    -0.646 OA
BRANCH  19  21
ATOM     21  O   UNL d   1     -19.972  26.594  30.065  0.00  0.00    -0.773 OA
ATOM     22  H   UNL d   1     -20.541  26.394  30.821  0.00  0.00     0.167 HD
ENDBRANCH  19  21
ENDBRANCH  18  19
ENDBRANCH   9  12
ENDBRANCH   1   8
BRANCH   7  23
ATOM     23  O   UNL d   1     -17.854  25.732  24.950  0.00  0.00    -0.345 OA
BRANCH  23  24
ATOM     24  C   UNL d   1     -17.038  25.999  23.809  0.00  0.00     0.129 C 
ATOM     25  C   UNL d   1     -17.005  27.506  23.547  0.00  0.00     0.040 C 
BRANCH  24  26
ATOM     26  C   UNL d   1     -15.617  25.495  24.068  0.00  0.00     0.015 C 
ATOM     27  C   UNL d   1     -15.617  24.582  25.296  0.00  0.00     0.007 C 
ATOM     28  C   UNL d   1     -14.195  24.079  25.557  0.00  0.00     0.000 C 
ATOM     29  C   UNL d   1     -13.700  23.296  24.338  0.00  0.00     0.000 C 
ATOM     30  C   UNL d   1     -13.701  24.210  23.111  0.00  0.00     0.000 C 
ATOM     31  C   UNL d   1     -15.123  24.712  22.851  0.00  0.00     0.007 C 
ENDBRANCH  24  26
ENDBRANCH  23  24
ENDBRANCH   7  23
BRANCH   5  32
ATOM     32  N   UNL d   1     -22.062  24.682  22.928  0.00  0.00    -0.178 N 
ATOM     33  C   UNL d   1     -21.956  24.678  21.581  0.00  0.00     0.351 A 
ATOM     34  N   UNL d   1     -22.844  23.787  21.112  0.00  0.00    -0.284 N 
ATOM     35  O   UNL d   1     -21.194  25.356  20.916  0.00  0.00    -0.244 OA
ATOM     36  C   UNL d   1     -23.537  23.258  22.182  0.00  0.00     0.131 A 
ATOM     37  C   UNL d   1     -23.059  23.391  19.716  0.00  0.00     0.135 C 
ATOM     38  N   UNL d   1     -23.073  23.770  23.271  0.00  0.00    -0.149 NA
ATOM     39  C   UNL d   1     -24.658  22.256  22.043  0.00  0.00     0.081 C 
ATOM     40  C   UNL d   1     -24.555  21.618  20.651  0.00  0.00     0.009 C 
ATOM     41  C   UNL d   1     -24.436  22.726  19.600  0.00  0.00     0.021 C 
ENDBRANCH   5  32
TORSDOF 8
ENDMDL
