MODEL 1
REMARK VINA RESULT:      -8.2      0.000      0.000
REMARK  5 active torsions:
REMARK  status: ('A' for Active; 'I' for Inactive)
REMARK    1  A    between atoms: C_2  and  C_3 
REMARK    2  A    between atoms: C_7  and  C_8 
REMARK    3  A    between atoms: C_8  and  S_9 
REMARK    4  A    between atoms: N_10  and  C_11 
REMARK    5  A    between atoms: C_14  and  C_15 
ROOT
ATOM      1  C   UNL d   1     -22.117  23.985  22.244  0.00  0.00     0.105 C 
ATOM      2  N   UNL d   1     -22.733  23.110  23.006  0.00  0.00    -0.241 NA
ENDROOT
BRANCH   2   3
ATOM      3  C   UNL d   1     -24.057  22.833  22.800  0.00  0.00     0.058 A 
ATOM      4  C   UNL d   1     -25.033  23.452  23.584  0.00  0.00     0.032 A 
ATOM      5  C   UNL d   1     -26.366  23.163  23.375  0.00  0.00     0.018 A 
ATOM      6  C   UNL d   1     -26.736  22.268  22.387  0.00  0.00     0.048 A 
ATOM      7  C   UNL d   1     -25.775  21.655  21.603  0.00  0.00     0.018 A 
ATOM      8  C   UNL d   1     -24.439  21.933  21.802  0.00  0.00     0.032 A 
BRANCH   6   9
ATOM      9  C   UNL d   1     -28.194  21.958  22.165  0.00  0.00     0.417 C 
ATOM     10  F   UNL d   1     -28.894  23.145  21.930  0.00  0.00    -0.166 F 
ATOM     11  F   UNL d   1     -28.328  21.111  21.060  0.00  0.00    -0.166 F 
ATOM     12  F   UNL d   1     -28.714  21.327  23.301  0.00  0.00    -0.166 F 
ENDBRANCH   6   9
ENDBRANCH   2   3
BRANCH   1  13
ATOM     13  C   UNL d   1     -20.689  24.283  22.465  0.00  0.00     0.051 A 
ATOM     14  C   UNL d   1     -20.110  24.901  23.543  0.00  0.00     0.093 A 
ATOM     15  O   UNL d   1     -18.798  24.942  23.289  0.00  0.00    -0.217 OA
ATOM     16  N   UNL d   1     -18.529  24.447  22.220  0.00  0.00    -0.140 NA
ATOM     17  C   UNL d   1     -19.585  24.003  21.607  0.00  0.00     0.163 A 
BRANCH  14  18
ATOM     18  C   UNL d   1     -20.810  25.427  24.770  0.00  0.00     0.064 C 
ATOM     19  C   UNL d   1     -21.468  26.770  24.445  0.00  0.00     0.012 C 
ENDBRANCH  14  18
ENDBRANCH   1  13
BRANCH   1  20
ATOM     20  S   UNL d   1     -22.998  24.803  20.954  0.00  0.00    -0.122 SA
ATOM     21  H   UNL d   1     -24.175  24.028  20.932  0.00  0.00     0.108 HD
ENDBRANCH   1  20
TORSDOF 5
ENDMDL
