MODEL 1
REMARK VINA RESULT:     -10.1      0.000      0.000
REMARK  6 active torsions:
REMARK  status: ('A' for Active; 'I' for Inactive)
REMARK    1  A    between atoms: C_2  and  O_3 
REMARK    2  A    between atoms: O_3  and  C_4 
REMARK    3  A    between atoms: C_4  and  C_6 
REMARK    4  A    between atoms: C_8  and  N_9 
REMARK    5  A    between atoms: N_9  and  C_10 
REMARK    6  A    between atoms: C_20  and  C_21 
ROOT
ATOM      1  C   UNL d   1     -23.297  23.737  20.821  0.00  0.00     0.113 A 
ATOM      2  S   UNL d   1     -24.247  22.431  20.117  0.00  0.00    -0.044 SA
ATOM      3  C   UNL d   1     -24.971  22.117  21.633  0.00  0.00     0.172 A 
ATOM      4  N   UNL d   1     -24.522  22.933  22.539  0.00  0.00    -0.222 NA
ATOM      5  C   UNL d   1     -23.621  23.817  22.161  0.00  0.00     0.093 A 
ENDROOT
BRANCH   3   6
ATOM      6  N   UNL d   1     -25.909  21.133  21.863  0.00  0.00    -0.335 N 
ATOM      7  H   UNL d   1     -25.662  20.198  21.787  0.00  0.00     0.168 HD
BRANCH   6   8
ATOM      8  C   UNL d   1     -27.218  21.482  22.206  0.00  0.00     0.034 A 
ATOM      9  C   UNL d   1     -28.171  21.672  21.215  0.00  0.00     0.037 A 
ATOM     10  C   UNL d   1     -29.467  22.020  21.554  0.00  0.00    -0.050 A 
ATOM     11  C   UNL d   1     -29.814  22.177  22.883  0.00  0.00    -0.052 A 
ATOM     12  C   UNL d   1     -30.672  22.282  20.675  0.00  0.00     0.039 C 
ATOM     13  C   UNL d   1     -28.864  21.987  23.873  0.00  0.00     0.010 A 
ATOM     14  C   UNL d   1     -31.280  22.552  22.990  0.00  0.00     0.039 C 
ATOM     15  C   UNL d   1     -27.571  21.640  23.540  0.00  0.00     0.030 A 
ATOM     16  C   UNL d   1     -31.889  22.185  21.621  0.00  0.00     0.009 C 
ENDBRANCH   6   8
ENDBRANCH   3   6
BRANCH   1  17
ATOM     17  C   UNL d   1     -22.371  24.556  20.136  0.00  0.00     0.302 C 
ATOM     18  O   UNL d   1     -22.748  25.581  19.596  0.00  0.00    -0.259 OA
BRANCH  17  19
ATOM     19  O   UNL d   1     -21.069  24.203  20.079  0.00  0.00    -0.317 OA
BRANCH  19  20
ATOM     20  C   UNL d   1     -20.161  24.934  20.905  0.00  0.00     0.174 C 
ATOM     21  C   UNL d   1     -19.368  23.958  21.777  0.00  0.00     0.034 C 
ENDBRANCH  19  20
ENDBRANCH  17  19
ENDBRANCH   1  17
BRANCH   5  22
ATOM     22  C   UNL d   1     -23.017  24.805  23.083  0.00  0.00    -0.006 A 
ATOM     23  C   UNL d   1     -23.490  26.117  23.112  0.00  0.00     0.014 A 
ATOM     24  C   UNL d   1     -22.923  27.033  23.975  0.00  0.00     0.001 A 
ATOM     25  C   UNL d   1     -21.887  26.653  24.809  0.00  0.00     0.000 A 
ATOM     26  C   UNL d   1     -21.413  25.353  24.784  0.00  0.00     0.001 A 
ATOM     27  C   UNL d   1     -21.977  24.426  23.932  0.00  0.00     0.014 A 
ENDBRANCH   5  22
TORSDOF 6
ENDMDL
