MODEL 1
REMARK VINA RESULT:     -10.6      0.000      0.000
REMARK  7 active torsions:
REMARK  status: ('A' for Active; 'I' for Inactive)
REMARK    1  A    between atoms: C_2  and  N_3 
REMARK    2  A    between atoms: N_3  and  N_4 
REMARK    3  A    between atoms: N_3  and  C_15 
REMARK    4  A    between atoms: C_5  and  C_6 
REMARK    5  A    between atoms: C_11  and  C_12 
REMARK    6  A    between atoms: C_12  and  O_14 
REMARK    7  A    between atoms: C_17  and  C_18 
ROOT
ATOM      1  N   UNL d   1     -27.713  22.325  23.949  0.00  0.00    -0.247 N 
ENDROOT
BRANCH   1   2
ATOM      2  C   UNL d   1     -27.419  23.005  25.213  0.00  0.00     0.149 C 
ATOM      3  C   UNL d   1     -27.698  22.054  26.379  0.00  0.00     0.028 C 
ENDBRANCH   1   2
BRANCH   1   4
ATOM      4  N   UNL d   1     -28.983  21.777  23.728  0.00  0.00    -0.182 NA
ATOM      5  C   UNL d   1     -29.993  22.556  23.478  0.00  0.00     0.151 C 
BRANCH   5   6
ATOM      6  C   UNL d   1     -31.298  21.977  23.125  0.00  0.00    -0.000 A 
ATOM      7  C   UNL d   1     -32.022  21.224  24.073  0.00  0.00     0.049 A 
ATOM      8  C   UNL d   1     -33.262  20.686  23.724  0.00  0.00     0.019 A 
ATOM      9  C   UNL d   1     -33.768  20.890  22.458  0.00  0.00     0.001 A 
ATOM     10  C   UNL d   1     -33.055  21.627  21.524  0.00  0.00     0.001 A 
ATOM     11  C   UNL d   1     -31.828  22.166  21.847  0.00  0.00     0.014 A 
BRANCH   7  12
ATOM     12  C   UNL d   1     -31.475  21.011  25.425  0.00  0.00     0.177 C 
ATOM     13  O   UNL d   1     -31.738  21.793  26.317  0.00  0.00    -0.646 OA
BRANCH  12  14
ATOM     14  O   UNL d   1     -30.683  19.948  25.672  0.00  0.00    -0.773 OA
ATOM     15  H   UNL d   1     -30.281  19.896  26.550  0.00  0.00     0.167 HD
ENDBRANCH  12  14
ENDBRANCH   7  12
ENDBRANCH   5   6
ENDBRANCH   1   4
BRANCH   1  16
ATOM     16  C   UNL d   1     -26.736  22.228  22.972  0.00  0.00     0.189 A 
ATOM     17  S   UNL d   1     -26.886  21.326  21.467  0.00  0.00    -0.060 SA
ATOM     18  C   UNL d   1     -25.255  21.815  21.011  0.00  0.00     0.086 A 
ATOM     19  C   UNL d   1     -24.754  22.581  21.997  0.00  0.00     0.078 A 
ATOM     20  N   UNL d   1     -25.563  22.783  23.028  0.00  0.00    -0.222 NA
BRANCH  19  21
ATOM     21  C   UNL d   1     -23.389  23.158  21.936  0.00  0.00     0.015 A 
ATOM     22  C   UNL d   1     -22.912  23.699  20.742  0.00  0.00     0.046 A 
ATOM     23  C   UNL d   1     -21.640  24.236  20.690  0.00  0.00     0.025 A 
ATOM     24 CL   UNL d   1     -23.914  23.699  19.324  0.00  0.00    -0.083 Cl
ATOM     25  C   UNL d   1     -20.841  24.236  21.819  0.00  0.00     0.002 A 
ATOM     26  C   UNL d   1     -21.310  23.700  23.006  0.00  0.00     0.001 A 
ATOM     27  C   UNL d   1     -22.581  23.167  23.071  0.00  0.00     0.015 A 
ENDBRANCH  19  21
ENDBRANCH   1  16
TORSDOF 7
ENDMDL
