MODEL 1
REMARK VINA RESULT:      -9.5      0.000      0.000
REMARK  10 active torsions:
REMARK  status: ('A' for Active; 'I' for Inactive)
REMARK    1  A    between atoms: C_2  and  C_3 
REMARK    2  A    between atoms: N_5  and  C_6 
REMARK    3  A    between atoms: C_8  and  O_9 
REMARK    4  A    between atoms: O_9  and  C_10 
REMARK    5  A    between atoms: C_10  and  C_12 
REMARK    6  A    between atoms: C_12  and  C_13 
REMARK    7  A    between atoms: C_16  and  C_17 
REMARK       I    between atoms: C_17  and  N_19 
REMARK    8  A    between atoms: N_19  and  C_20 
REMARK    9  A    between atoms: C_20  and  C_21 
REMARK   10  A    between atoms: C_20  and  C_23 
ROOT
ATOM      1  C   UNL d   1     -27.180  23.065  24.133  0.00  0.00     0.104 A 
ATOM      2  C   UNL d   1     -28.310  23.091  23.327  0.00  0.00     0.073 A 
ATOM      3  C   UNL d   1     -29.504  22.566  23.791  0.00  0.00     0.087 A 
ATOM      4  C   UNL d   1     -29.570  22.018  25.081  0.00  0.00     0.068 A 
ATOM      5  C   UNL d   1     -28.427  21.996  25.887  0.00  0.00     0.064 A 
ATOM      6  C   UNL d   1     -27.243  22.516  25.413  0.00  0.00     0.146 A 
ATOM      7  F   UNL d   1     -26.139  22.495  26.192  0.00  0.00    -0.204 F 
ENDROOT
BRANCH   1   8
ATOM      8  N   UNL d   1     -25.976  23.591  23.660  0.00  0.00    -0.178 N 
ATOM      9  N   UNL d   1     -25.029  22.921  22.874  0.00  0.00    -0.149 NA
ATOM     10  C   UNL d   1     -24.052  23.737  22.638  0.00  0.00     0.130 A 
ATOM     11  N   UNL d   1     -24.321  24.939  23.246  0.00  0.00    -0.289 N 
ATOM     12  C   UNL d   1     -25.512  24.841  23.869  0.00  0.00     0.351 A 
ATOM     13  C   UNL d   1     -23.461  26.125  23.218  0.00  0.00     0.162 C 
ATOM     14  O   UNL d   1     -26.066  25.719  24.506  0.00  0.00    -0.244 OA
BRANCH  10  15
ATOM     15  C   UNL d   1     -22.820  23.420  21.827  0.00  0.00     0.076 C 
ATOM     16  C   UNL d   1     -23.080  23.751  20.356  0.00  0.00     0.013 C 
ENDBRANCH  10  15
ENDBRANCH   1   8
BRANCH   3  17
ATOM     17  O   UNL d   1     -30.608  22.585  23.003  0.00  0.00    -0.345 OA
BRANCH  17  18
ATOM     18  C   UNL d   1     -30.474  22.047  21.686  0.00  0.00     0.125 C 
ATOM     19  C   UNL d   1     -29.464  22.880  20.895  0.00  0.00     0.040 C 
BRANCH  18  20
ATOM     20  C   UNL d   1     -31.830  22.084  20.980  0.00  0.00     0.036 C 
BRANCH  20  21
ATOM     21  C   UNL d   1     -32.933  21.710  21.972  0.00  0.00    -0.012 A 
ATOM     22  C   UNL d   1     -34.280  22.422  21.832  0.00  0.00     0.005 A 
ATOM     23  C   UNL d   1     -34.145  20.950  21.430  0.00  0.00     0.005 A 
ENDBRANCH  20  21
ENDBRANCH  18  20
ENDBRANCH  17  18
ENDBRANCH   3  17
BRANCH   4  24
ATOM     24  C   UNL d   1     -30.839  21.463  25.584  0.00  0.00     0.254 C 
ATOM     25  O   UNL d   1     -31.556  22.136  26.300  0.00  0.00    -0.268 OA
ATOM     26  N   UNL d   1     -31.208  20.211  25.246  0.00  0.00    -0.352 N 
ATOM     27  H   UNL d   1     -30.638  19.676  24.672  0.00  0.00     0.163 HD
BRANCH  26  28
ATOM     28  C   UNL d   1     -32.469  19.660  25.747  0.00  0.00     0.084 C 
BRANCH  28  29
ATOM     29  C   UNL d   1     -33.553  19.813  24.677  0.00  0.00     0.021 C 
ATOM     30  C   UNL d   1     -34.896  20.102  25.351  0.00  0.00     0.007 C 
ENDBRANCH  28  29
BRANCH  28  31
ATOM     31  C   UNL d   1     -32.283  18.177  26.075  0.00  0.00     0.021 C 
ATOM     32  C   UNL d   1     -30.904  17.963  26.701  0.00  0.00     0.007 C 
ENDBRANCH  28  31
ENDBRANCH  26  28
ENDBRANCH   4  24
TORSDOF 10
ENDMDL
