MODEL 1
REMARK VINA RESULT:     -11.1      0.000      0.000
REMARK  9 active torsions:
REMARK  status: ('A' for Active; 'I' for Inactive)
REMARK    1  A    between atoms: O_2  and  C_3 
REMARK    2  A    between atoms: C_5  and  C_6 
REMARK    3  A    between atoms: C_8  and  C_9 
REMARK    4  A    between atoms: C_9  and  O_11 
REMARK    5  A    between atoms: C_21  and  O_22 
REMARK    6  A    between atoms: O_22  and  C_23 
REMARK    7  A    between atoms: C_23  and  C_24 
REMARK       I    between atoms: C_24  and  N_26 
REMARK    8  A    between atoms: N_26  and  C_27 
REMARK    9  A    between atoms: C_27  and  C_28 
ROOT
ATOM      1  C   UNL d   1     -25.374  23.132  22.705  0.00  0.00     0.102 A 
ATOM      2  C   UNL d   1     -26.698  22.977  23.074  0.00  0.00     0.053 A 
ATOM      3  C   UNL d   1     -27.533  22.144  22.330  0.00  0.00    -0.004 A 
ATOM      4  C   UNL d   1     -27.033  21.477  21.212  0.00  0.00     0.017 A 
ATOM      5  C   UNL d   1     -25.714  21.639  20.844  0.00  0.00     0.040 A 
ATOM      6  C   UNL d   1     -24.882  22.466  21.585  0.00  0.00     0.102 A 
ENDROOT
BRANCH   3   7
ATOM      7  C   UNL d   1     -28.952  21.971  22.725  0.00  0.00     0.069 A 
ATOM      8  N   UNL d   1     -29.888  22.125  21.812  0.00  0.00    -0.247 NA
ATOM      9  C   UNL d   1     -31.185  21.981  22.091  0.00  0.00     0.068 A 
ATOM     10  C   UNL d   1     -31.596  21.662  23.409  0.00  0.00     0.010 A 
ATOM     11  C   UNL d   1     -32.165  22.145  21.093  0.00  0.00     0.032 A 
ATOM     12  C   UNL d   1     -30.573  21.492  24.442  0.00  0.00     0.052 A 
ATOM     13  C   UNL d   1     -32.957  21.517  23.698  0.00  0.00     0.015 A 
ATOM     14  C   UNL d   1     -29.249  21.655  24.059  0.00  0.00     0.051 A 
ATOM     15  C   UNL d   1     -33.878  21.684  22.706  0.00  0.00     0.001 A 
ATOM     16  C   UNL d   1     -33.480  21.996  21.408  0.00  0.00     0.002 A 
BRANCH  12  17
ATOM     17  C   UNL d   1     -30.935  21.159  25.836  0.00  0.00     0.177 C 
ATOM     18  O   UNL d   1     -31.641  21.912  26.476  0.00  0.00    -0.646 OA
BRANCH  17  19
ATOM     19  O   UNL d   1     -30.483  20.021  26.395  0.00  0.00    -0.773 OA
ATOM     20  H   UNL d   1     -30.721  19.192  25.958  0.00  0.00     0.167 HD
ENDBRANCH  17  19
ENDBRANCH  12  17
ENDBRANCH   3   7
BRANCH   1  21
ATOM     21  O   UNL d   1     -24.555  23.937  23.432  0.00  0.00    -0.353 OA
ATOM     22  C   UNL d   1     -25.053  25.233  23.770  0.00  0.00     0.210 C 
ENDBRANCH   1  21
BRANCH   6  23
ATOM     23  O   UNL d   1     -23.581  22.623  21.220  0.00  0.00    -0.339 OA
BRANCH  23  24
ATOM     24  C   UNL d   1     -23.322  23.452  20.085  0.00  0.00     0.278 C 
BRANCH  24  25
ATOM     25  C   UNL d   1     -22.275  24.476  20.441  0.00  0.00     0.242 C 
ATOM     26  O   UNL d   1     -21.923  25.294  19.617  0.00  0.00    -0.271 OA
ATOM     27  N   UNL d   1     -21.731  24.483  21.674  0.00  0.00    -0.354 N 
ATOM     28  H   UNL d   1     -22.014  23.828  22.332  0.00  0.00     0.162 HD
BRANCH  27  29
ATOM     29  C   UNL d   1     -20.713  25.478  22.020  0.00  0.00     0.168 C 
BRANCH  29  30
ATOM     30  C   UNL d   1     -20.879  25.886  23.461  0.00  0.00     0.000 A 
ATOM     31  S   UNL d   1     -19.787  25.453  24.770  0.00  0.00    -0.105 SA
ATOM     32  C   UNL d   1     -20.776  26.336  25.926  0.00  0.00     0.050 A 
ATOM     33  C   UNL d   1     -21.822  26.876  25.300  0.00  0.00     0.008 A 
ATOM     34  C   UNL d   1     -21.880  26.627  23.940  0.00  0.00     0.017 A 
ENDBRANCH  29  30
ENDBRANCH  27  29
ENDBRANCH  24  25
ENDBRANCH  23  24
ENDBRANCH   6  23
TORSDOF 9
ENDMDL
