MODEL 1
REMARK VINA RESULT:     -10.5      0.000      0.000
REMARK  7 active torsions:
REMARK  status: ('A' for Active; 'I' for Inactive)
REMARK    1  A    between atoms: C_2  and  O_3 
REMARK    2  A    between atoms: O_3  and  C_4 
REMARK    3  A    between atoms: C_8  and  C_9 
REMARK    4  A    between atoms: C_12  and  N_13 
REMARK    5  A    between atoms: N_13  and  C_14 
REMARK    6  A    between atoms: C_19  and  C_20 
REMARK    7  A    between atoms: C_20  and  O_22 
ROOT
ATOM      1  C   UNL d   1     -26.324  23.361  23.962  0.00  0.00    -0.023 A 
ATOM      2  C   UNL d   1     -27.045  22.588  23.054  0.00  0.00     0.014 A 
ATOM      3  C   UNL d   1     -28.105  21.821  23.490  0.00  0.00     0.033 A 
ATOM      4  C   UNL d   1     -28.455  21.818  24.834  0.00  0.00     0.072 A 
ATOM      5  C   UNL d   1     -27.740  22.592  25.743  0.00  0.00     0.143 A 
ATOM      6  F   UNL d   1     -28.086  22.592  27.049  0.00  0.00    -0.204 F 
ATOM      7  C   UNL d   1     -26.675  23.357  25.311  0.00  0.00     0.057 A 
ENDROOT
BRANCH   4   8
ATOM      8  N   UNL d   1     -29.530  21.040  25.273  0.00  0.00    -0.338 N 
ATOM      9  H   UNL d   1     -29.402  20.394  25.986  0.00  0.00     0.167 HD
BRANCH   8  10
ATOM     10  C   UNL d   1     -30.776  21.189  24.691  0.00  0.00     0.144 A 
ATOM     11  C   UNL d   1     -31.820  20.313  25.037  0.00  0.00     0.083 A 
ATOM     12  C   UNL d   1     -33.073  20.489  24.438  0.00  0.00     0.024 A 
ATOM     13  C   UNL d   1     -33.226  21.514  23.521  0.00  0.00     0.020 A 
ATOM     14  C   UNL d   1     -32.150  22.336  23.233  0.00  0.00     0.119 A 
ATOM     15  N   UNL d   1     -30.979  22.157  23.811  0.00  0.00    -0.242 NA
BRANCH  11  16
ATOM     16  C   UNL d   1     -31.600  19.234  26.014  0.00  0.00     0.180 C 
ATOM     17  O   UNL d   1     -31.952  18.099  25.756  0.00  0.00    -0.646 OA
BRANCH  16  18
ATOM     18  O   UNL d   1     -31.007  19.503  27.194  0.00  0.00    -0.773 OA
ATOM     19  H   UNL d   1     -30.558  20.357  27.275  0.00  0.00     0.167 HD
ENDBRANCH  16  18
ENDBRANCH  11  16
ENDBRANCH   8  10
ENDBRANCH   4   8
BRANCH   1  20
ATOM     20  C   UNL d   1     -25.183  24.187  23.494  0.00  0.00    -0.023 A 
ATOM     21  C   UNL d   1     -25.070  25.516  23.898  0.00  0.00     0.012 A 
ATOM     22  C   UNL d   1     -24.006  26.280  23.466  0.00  0.00     0.004 A 
ATOM     23  C   UNL d   1     -23.056  25.734  22.623  0.00  0.00     0.037 A 
ATOM     24  C   UNL d   1     -23.164  24.414  22.210  0.00  0.00     0.069 A 
ATOM     25  C   UNL d   1     -24.226  23.637  22.644  0.00  0.00     0.049 A 
BRANCH  24  26
ATOM     26  O   UNL d   1     -22.227  23.881  21.381  0.00  0.00    -0.351 OA
BRANCH  26  27
ATOM     27  C   UNL d   1     -21.045  24.652  21.158  0.00  0.00     0.171 C 
ATOM     28  C   UNL d   1     -19.869  24.004  21.889  0.00  0.00     0.034 C 
ENDBRANCH  26  27
ENDBRANCH  24  26
ENDBRANCH   1  20
TORSDOF 7
ENDMDL
