MODEL 1
REMARK VINA RESULT:     -11.7      0.000      0.000
REMARK  4 active torsions:
REMARK  status: ('A' for Active; 'I' for Inactive)
REMARK    1  A    between atoms: C_2  and  O_3 
REMARK    2  A    between atoms: C_2  and  C_4 
REMARK    3  A    between atoms: C_12  and  C_13 
REMARK    4  A    between atoms: C_16  and  C_17 
ROOT
ATOM      1  C   UNL d   1     -31.196  21.394  24.644  0.00  0.00     0.070 A 
ATOM      2  C   UNL d   1     -32.466  21.328  24.073  0.00  0.00     0.044 A 
ATOM      3  C   UNL d   1     -32.665  21.728  22.764  0.00  0.00     0.037 A 
ATOM      4 CL   UNL d   1     -34.253  21.637  22.070  0.00  0.00    -0.084 Cl
ATOM      5  C   UNL d   1     -31.610  22.195  22.001  0.00  0.00     0.056 A 
ATOM      6  C   UNL d   1     -30.337  22.276  22.545  0.00  0.00     0.065 A 
ATOM      7  N   UNL d   1     -29.111  22.688  22.057  0.00  0.00    -0.338 N 
ATOM      8  H   UNL d   1     -28.930  23.025  21.166  0.00  0.00     0.167 HD
ATOM      9  C   UNL d   1     -28.203  22.532  23.068  0.00  0.00     0.142 A 
ATOM     10  N   UNL d   1     -28.805  22.051  24.133  0.00  0.00    -0.227 NA
ATOM     11  C   UNL d   1     -30.112  21.873  23.875  0.00  0.00     0.102 A 
ENDROOT
BRANCH   9  12
ATOM     12  C   UNL d   1     -26.765  22.854  22.978  0.00  0.00     0.049 A 
ATOM     13  C   UNL d   1     -25.930  22.099  22.148  0.00  0.00     0.131 A 
ATOM     14  C   UNL d   1     -24.587  22.404  22.060  0.00  0.00     0.055 A 
ATOM     15  F   UNL d   1     -26.438  21.073  21.429  0.00  0.00    -0.205 F 
ATOM     16  C   UNL d   1     -24.063  23.458  22.806  0.00  0.00    -0.023 A 
ATOM     17  C   UNL d   1     -24.895  24.208  23.638  0.00  0.00     0.013 A 
ATOM     18  C   UNL d   1     -26.236  23.908  23.724  0.00  0.00     0.019 A 
BRANCH  16  19
ATOM     19  C   UNL d   1     -22.619  23.782  22.716  0.00  0.00    -0.026 A 
ATOM     20  C   UNL d   1     -22.032  24.029  21.476  0.00  0.00     0.012 A 
ATOM     21  C   UNL d   1     -20.688  24.331  21.399  0.00  0.00     0.001 A 
ATOM     22  C   UNL d   1     -19.922  24.389  22.549  0.00  0.00     0.000 A 
ATOM     23  C   UNL d   1     -20.499  24.146  23.783  0.00  0.00     0.001 A 
ATOM     24  C   UNL d   1     -21.844  23.849  23.873  0.00  0.00     0.012 A 
ENDBRANCH  16  19
ENDBRANCH   9  12
BRANCH   1  25
ATOM     25  C   UNL d   1     -30.986  20.968  26.037  0.00  0.00     0.178 C 
ATOM     26  O   UNL d   1     -31.484  19.934  26.439  0.00  0.00    -0.646 OA
BRANCH  25  27
ATOM     27  O   UNL d   1     -30.242  21.725  26.868  0.00  0.00    -0.773 OA
ATOM     28  H   UNL d   1     -29.688  21.259  27.509  0.00  0.00     0.167 HD
ENDBRANCH  25  27
ENDBRANCH   1  25
TORSDOF 4
ENDMDL
