MODEL 1
REMARK VINA RESULT:      -9.2      0.000      0.000
REMARK  5 active torsions:
REMARK  status: ('A' for Active; 'I' for Inactive)
REMARK    1  A    between atoms: C_2  and  O_3 
REMARK    2  A    between atoms: O_3  and  C_4 
REMARK    3  A    between atoms: C_4  and  C_6 
REMARK    4  A    between atoms: C_7  and  N_8 
REMARK    5  A    between atoms: N_8  and  C_9 
ROOT
ATOM      1  N   UNL d   1     -28.945  21.670  24.270  0.00  0.00    -0.350 N 
ATOM      2  H   UNL d   1     -28.970  21.152  25.090  0.00  0.00     0.166 HD
ENDROOT
BRANCH   1   3
ATOM      3  C   UNL d   1     -30.083  21.850  23.541  0.00  0.00     0.090 A 
ATOM      4  C   UNL d   1     -31.380  21.699  24.018  0.00  0.00     0.119 A 
ATOM      5  C   UNL d   1     -32.431  21.922  23.142  0.00  0.00     0.177 A 
ATOM      6  C   UNL d   1     -31.960  22.306  21.760  0.00  0.00     0.165 A 
ATOM      7  O   UNL d   1     -33.601  21.819  23.452  0.00  0.00    -0.291 OA
ATOM      8  S   UNL d   1     -30.145  22.301  21.884  0.00  0.00    -0.103 SA
BRANCH   4   9
ATOM      9  C   UNL d   1     -31.629  21.316  25.408  0.00  0.00     0.299 C 
ATOM     10  O   UNL d   1     -31.380  22.096  26.308  0.00  0.00    -0.259 OA
BRANCH   9  11
ATOM     11  O   UNL d   1     -32.135  20.098  25.692  0.00  0.00    -0.318 OA
BRANCH  11  12
ATOM     12  C   UNL d   1     -31.243  19.145  26.327  0.00  0.00     0.174 C 
ATOM     13  C   UNL d   1     -32.016  17.867  26.658  0.00  0.00     0.034 C 
ENDBRANCH  11  12
ENDBRANCH   9  11
ENDBRANCH   4   9
ENDBRANCH   1   3
BRANCH   1  14
ATOM     14  C   UNL d   1     -27.738  22.229  23.835  0.00  0.00     0.033 A 
ATOM     15  C   UNL d   1     -27.062  21.678  22.759  0.00  0.00     0.037 A 
ATOM     16  C   UNL d   1     -25.868  22.232  22.320  0.00  0.00    -0.050 A 
ATOM     17  C   UNL d   1     -25.348  23.334  22.961  0.00  0.00    -0.052 A 
ATOM     18  C   UNL d   1     -25.182  21.578  21.148  0.00  0.00     0.039 C 
ATOM     19  C   UNL d   1     -26.022  23.883  24.047  0.00  0.00     0.010 A 
ATOM     20  C   UNL d   1     -24.065  23.993  22.530  0.00  0.00     0.039 C 
ATOM     21  C   UNL d   1     -27.210  23.337  24.485  0.00  0.00     0.030 A 
ATOM     22  C   UNL d   1     -23.247  23.051  21.647  0.00  0.00     0.005 C 
ATOM     23  C   UNL d   1     -24.156  22.526  20.530  0.00  0.00     0.005 C 
ENDBRANCH   1  14
TORSDOF 5
ENDMDL
