MODEL 1
REMARK VINA RESULT:     -10.9      0.000      0.000
REMARK  6 active torsions:
REMARK  status: ('A' for Active; 'I' for Inactive)
REMARK    1  A    between atoms: C_2  and  O_3 
REMARK    2  A    between atoms: C_2  and  C_34 
REMARK    3  A    between atoms: O_3  and  C_4 
REMARK    4  A    between atoms: C_6  and  N_7 
REMARK    5  A    between atoms: C_20  and  C_21 
REMARK       I    between atoms: C_21  and  N_23 
REMARK    6  A    between atoms: N_23  and  C_24 
ROOT
ATOM      1  C   UNL d   1     -24.699  23.309  22.638  0.00  0.00     0.087 A 
ATOM      2  C   UNL d   1     -25.959  22.771  22.826  0.00  0.00     0.073 A 
ATOM      3  C   UNL d   1     -26.806  23.303  23.789  0.00  0.00     0.104 A 
ATOM      4  C   UNL d   1     -26.390  24.380  24.571  0.00  0.00     0.146 A 
ATOM      5  F   UNL d   1     -27.220  24.893  25.507  0.00  0.00    -0.204 F 
ATOM      6  C   UNL d   1     -25.136  24.920  24.396  0.00  0.00     0.064 A 
ATOM      7  C   UNL d   1     -24.278  24.393  23.424  0.00  0.00     0.068 A 
ENDROOT
BRANCH   7   8
ATOM      8  C   UNL d   1     -22.938  24.970  23.230  0.00  0.00     0.260 C 
ATOM      9  O   UNL d   1     -22.811  26.038  22.662  0.00  0.00    -0.267 OA
ATOM     10  N   UNL d   1     -21.851  24.317  23.687  0.00  0.00    -0.306 N 
ATOM     11  H   UNL d   1     -21.951  23.466  24.140  0.00  0.00     0.170 HD
BRANCH  10  12
ATOM     12  C   UNL d   1     -20.588  24.864  23.510  0.00  0.00     0.145 A 
ATOM     13  C   UNL d   1     -20.080  25.806  24.415  0.00  0.00     0.057 A 
ATOM     14  C   UNL d   1     -18.793  26.332  24.191  0.00  0.00     0.142 A 
ATOM     15  C   UNL d   1     -20.574  26.443  25.634  0.00  0.00     0.036 A 
ATOM     16  N   UNL d   1     -18.110  25.913  23.128  0.00  0.00    -0.223 NA
ATOM     17  N   UNL d   1     -18.537  27.217  25.202  0.00  0.00    -0.350 N 
ATOM     18  C   UNL d   1     -18.628  25.027  22.304  0.00  0.00     0.237 A 
ATOM     19  N   UNL d   1     -19.827  24.504  22.481  0.00  0.00    -0.223 NA
ATOM     20  H   UNL d   1     -17.720  27.729  25.300  0.00  0.00     0.166 HD
ATOM     21  C   UNL d   1     -19.607  27.275  26.057  0.00  0.00     0.091 A 
ENDBRANCH  10  12
ENDBRANCH   7   8
BRANCH   1  22
ATOM     22  O   UNL d   1     -23.870  22.790  21.696  0.00  0.00    -0.336 OA
BRANCH  22  23
ATOM     23  C   UNL d   1     -23.928  23.370  20.392  0.00  0.00     0.232 C 
ATOM     24  C   UNL d   1     -22.520  23.775  19.950  0.00  0.00     0.049 C 
BRANCH  23  25
ATOM     25  C   UNL d   1     -24.498  22.349  19.405  0.00  0.00     0.413 C 
ATOM     26  F   UNL d   1     -24.585  22.927  18.134  0.00  0.00    -0.168 F 
ATOM     27  F   UNL d   1     -23.655  21.233  19.352  0.00  0.00    -0.168 F 
ATOM     28  F   UNL d   1     -25.771  21.953  19.826  0.00  0.00    -0.168 F 
ENDBRANCH  23  25
ENDBRANCH  22  23
ENDBRANCH   1  22
BRANCH   3  29
ATOM     29  N   UNL d   1     -28.078  22.758  23.976  0.00  0.00    -0.178 N 
ATOM     30  C   UNL d   1     -28.484  22.016  25.029  0.00  0.00     0.351 A 
ATOM     31  N   UNL d   1     -29.778  21.715  24.832  0.00  0.00    -0.284 N 
ATOM     32  O   UNL d   1     -27.803  21.683  25.982  0.00  0.00    -0.244 OA
ATOM     33  C   UNL d   1     -30.168  22.247  23.620  0.00  0.00     0.131 A 
ATOM     34  C   UNL d   1     -30.670  20.975  25.732  0.00  0.00     0.135 C 
ATOM     35  N   UNL d   1     -29.171  22.884  23.106  0.00  0.00    -0.149 NA
ATOM     36  C   UNL d   1     -31.549  22.071  23.033  0.00  0.00     0.081 C 
ATOM     37  C   UNL d   1     -32.498  21.652  24.164  0.00  0.00     0.009 C 
ATOM     38  C   UNL d   1     -31.876  20.478  24.928  0.00  0.00     0.021 C 
ENDBRANCH   3  29
TORSDOF 6
ENDMDL
