MODEL 1
REMARK VINA RESULT:      -9.6      0.000      0.000
REMARK  8 active torsions:
REMARK  status: ('A' for Active; 'I' for Inactive)
REMARK    1  A    between atoms: C_2  and  C_3 
REMARK    2  A    between atoms: C_3  and  O_4 
REMARK    3  A    between atoms: C_5  and  C_8 
REMARK       I    between atoms: C_8  and  N_10 
REMARK    4  A    between atoms: N_10  and  C_11 
REMARK    5  A    between atoms: C_14  and  C_15 
REMARK    6  A    between atoms: C_21  and  O_22 
REMARK    7  A    between atoms: C_24  and  C_25 
REMARK    8  A    between atoms: C_25  and  O_27 
ROOT
ATOM      1  C   UNL d   1     -32.110  21.938  22.613  0.00  0.00     0.069 C 
ATOM      2  C   UNL d   1     -31.108  22.099  23.524  0.00  0.00     0.141 C 
ATOM      3  C   UNL d   1     -31.382  21.953  24.922  0.00  0.00     0.107 C 
ATOM      4  N   UNL d   1     -31.598  21.838  26.031  0.00  0.00    -0.191 NA
ENDROOT
BRANCH   2   5
ATOM      5  C   UNL d   1     -29.747  22.423  23.071  0.00  0.00     0.269 C 
ATOM      6  O   UNL d   1     -29.583  23.188  22.140  0.00  0.00    -0.266 OA
ATOM      7  N   UNL d   1     -28.683  21.872  23.687  0.00  0.00    -0.322 N 
ATOM      8  H   UNL d   1     -28.814  21.212  24.385  0.00  0.00     0.169 HD
BRANCH   7   9
ATOM      9  C   UNL d   1     -27.388  22.253  23.320  0.00  0.00     0.036 A 
ATOM     10  C   UNL d   1     -26.905  23.497  23.690  0.00  0.00     0.048 A 
ATOM     11  C   UNL d   1     -25.611  23.876  23.331  0.00  0.00     0.052 A 
ATOM     12  C   UNL d   1     -24.811  22.993  22.580  0.00  0.00    -0.007 A 
ATOM     13  C   UNL d   1     -25.314  21.746  22.216  0.00  0.00     0.015 A 
ATOM     14  C   UNL d   1     -26.591  21.382  22.583  0.00  0.00     0.030 A 
BRANCH  11  15
ATOM     15  C   UNL d   1     -25.086  25.195  23.728  0.00  0.00     0.293 C 
ATOM     16  O   UNL d   1     -25.307  25.626  24.841  0.00  0.00    -0.259 OA
BRANCH  15  17
ATOM     17  O   UNL d   1     -24.361  25.922  22.854  0.00  0.00    -0.322 OA
ATOM     18  C   UNL d   1     -23.346  26.799  23.410  0.00  0.00     0.213 C 
ENDBRANCH  15  17
ENDBRANCH  11  15
BRANCH  12  19
ATOM     19  C   UNL d   1     -23.439  23.385  22.187  0.00  0.00     0.009 A 
ATOM     20  C   UNL d   1     -23.173  23.794  20.875  0.00  0.00     0.082 A 
ATOM     21  C   UNL d   1     -21.886  24.159  20.516  0.00  0.00     0.079 A 
ATOM     22  C   UNL d   1     -20.868  24.120  21.453  0.00  0.00     0.119 A 
ATOM     23  C   UNL d   1     -21.129  23.716  22.753  0.00  0.00     0.043 A 
ATOM     24  F   UNL d   1     -19.614  24.477  21.098  0.00  0.00    -0.206 F 
ATOM     25  C   UNL d   1     -22.405  23.345  23.122  0.00  0.00     0.018 A 
BRANCH  20  26
ATOM     26  O   UNL d   1     -24.173  23.832  19.957  0.00  0.00    -0.355 OA
ATOM     27  C   UNL d   1     -24.267  22.731  19.052  0.00  0.00     0.210 C 
ENDBRANCH  20  26
ENDBRANCH  12  19
ENDBRANCH   7   9
ENDBRANCH   2   5
BRANCH   1  28
ATOM     28  C   UNL d   1     -33.505  21.606  23.078  0.00  0.00     0.061 C 
ATOM     29  C   UNL d   1     -34.002  20.358  22.347  0.00  0.00     0.012 C 
ENDBRANCH   1  28
BRANCH   1  30
ATOM     30  O   UNL d   1     -31.853  22.075  21.301  0.00  0.00    -0.363 OA
ATOM     31  H   UNL d   1     -32.522  22.526  20.768  0.00  0.00     0.217 HD
ENDBRANCH   1  30
TORSDOF 8
ENDMDL
