MODEL 1
REMARK VINA RESULT:     -13.1      0.000      0.000
REMARK  2 active torsions:
REMARK  status: ('A' for Active; 'I' for Inactive)
REMARK    1  A    between atoms: N_15  and  C_16 
REMARK    2  A    between atoms: C_20  and  C_21 
ROOT
ATOM      1  O   UNL d   1     -32.466  21.019  25.806  0.00  0.00    -0.285 OA
ATOM      2  C   UNL d   1     -31.734  21.373  24.902  0.00  0.00     0.216 A 
ATOM      3  C   UNL d   1     -32.275  21.562  23.539  0.00  0.00     0.031 A 
ATOM      4  C   UNL d   1     -33.623  21.336  23.278  0.00  0.00     0.016 A 
ATOM      5  C   UNL d   1     -34.117  21.516  21.997  0.00  0.00     0.001 A 
ATOM      6  C   UNL d   1     -33.279  21.918  20.974  0.00  0.00     0.001 A 
ATOM      7  C   UNL d   1     -31.937  22.158  21.218  0.00  0.00     0.016 A 
ATOM      8  C   UNL d   1     -31.424  21.977  22.498  0.00  0.00     0.031 A 
ATOM      9  C   UNL d   1     -29.989  22.213  22.771  0.00  0.00     0.214 A 
ATOM     10  O   UNL d   1     -29.249  22.567  21.875  0.00  0.00    -0.285 OA
ATOM     11  C   UNL d   1     -29.461  22.016  24.129  0.00  0.00     0.146 A 
ATOM     12  C   UNL d   1     -30.302  21.611  25.160  0.00  0.00     0.164 A 
ATOM     13  N   UNL d   1     -29.529  21.525  26.251  0.00  0.00    -0.125 NA
ATOM     14  N   UNL d   1     -28.323  21.845  25.939  0.00  0.00    -0.059 NA
ATOM     15  N   UNL d   1     -28.227  22.146  24.690  0.00  0.00    -0.209 N 
ENDROOT
BRANCH  15  16
ATOM     16  C   UNL d   1     -27.061  22.536  24.027  0.00  0.00     0.066 A 
ATOM     17  C   UNL d   1     -26.462  21.674  23.114  0.00  0.00     0.075 A 
ATOM     18  C   UNL d   1     -25.309  22.055  22.456  0.00  0.00     0.132 A 
ATOM     19  C   UNL d   1     -24.745  23.307  22.709  0.00  0.00     0.051 A 
ATOM     20  F   UNL d   1     -24.727  21.218  21.570  0.00  0.00    -0.205 F 
ATOM     21  C   UNL d   1     -25.349  24.170  23.625  0.00  0.00     0.132 A 
ATOM     22  C   UNL d   1     -26.504  23.784  24.276  0.00  0.00     0.075 A 
ATOM     23  F   UNL d   1     -24.806  25.383  23.873  0.00  0.00    -0.205 F 
BRANCH  19  24
ATOM     24  C   UNL d   1     -23.507  23.720  22.004  0.00  0.00    -0.020 A 
ATOM     25  C   UNL d   1     -22.279  23.671  22.661  0.00  0.00     0.015 A 
ATOM     26  C   UNL d   1     -21.130  24.055  22.001  0.00  0.00     0.043 A 
ATOM     27  C   UNL d   1     -21.196  24.490  20.687  0.00  0.00     0.116 A 
ATOM     28  C   UNL d   1     -22.415  24.541  20.030  0.00  0.00     0.043 A 
ATOM     29  F   UNL d   1     -20.069  24.866  20.044  0.00  0.00    -0.206 F 
ATOM     30  C   UNL d   1     -23.568  24.153  20.680  0.00  0.00     0.015 A 
ENDBRANCH  19  24
ENDBRANCH  15  16
TORSDOF 2
ENDMDL
