MODEL 1
REMARK VINA RESULT:     -10.8      0.000      0.000
REMARK  7 active torsions:
REMARK  status: ('A' for Active; 'I' for Inactive)
REMARK    1  A    between atoms: C_2  and  O_3 
REMARK    2  A    between atoms: C_4  and  C_7 
REMARK       I    between atoms: C_7  and  N_9 
REMARK    3  A    between atoms: N_9  and  C_10 
REMARK    4  A    between atoms: C_12  and  O_13 
REMARK    5  A    between atoms: O_13  and  C_14 
REMARK    6  A    between atoms: C_17  and  C_18 
REMARK    7  A    between atoms: C_22  and  C_23 
ROOT
ATOM      1  C   UNL d   1     -32.728  18.184  26.446  0.00  0.00     0.077 C 
ATOM      2  C   UNL d   1     -31.626  19.169  26.150  0.00  0.00     0.065 C 
ATOM      3  C   UNL d   1     -31.847  20.201  25.288  0.00  0.00     0.141 C 
ATOM      4  C   UNL d   1     -33.127  20.349  24.663  0.00  0.00     0.107 C 
ATOM      5  N   UNL d   1     -34.143  20.468  24.168  0.00  0.00    -0.191 NA
ENDROOT
BRANCH   3   6
ATOM      6  C   UNL d   1     -30.772  21.161  24.999  0.00  0.00     0.269 C 
ATOM      7  O   UNL d   1     -31.030  22.218  24.455  0.00  0.00    -0.266 OA
ATOM      8  N   UNL d   1     -29.500  20.870  25.338  0.00  0.00    -0.320 N 
ATOM      9  H   UNL d   1     -29.305  20.066  25.846  0.00  0.00     0.169 HD
BRANCH   8  10
ATOM     10  C   UNL d   1     -28.461  21.725  24.956  0.00  0.00     0.076 A 
ATOM     11  C   UNL d   1     -27.810  22.497  25.914  0.00  0.00     0.144 A 
ATOM     12  C   UNL d   1     -26.784  23.342  25.541  0.00  0.00     0.059 A 
ATOM     13  F   UNL d   1     -28.181  22.417  27.211  0.00  0.00    -0.204 F 
ATOM     14  C   UNL d   1     -26.398  23.421  24.205  0.00  0.00     0.011 A 
ATOM     15  C   UNL d   1     -27.057  22.649  23.242  0.00  0.00     0.082 A 
ATOM     16  C   UNL d   1     -28.084  21.804  23.622  0.00  0.00     0.070 A 
BRANCH  14  17
ATOM     17  C   UNL d   1     -25.292  24.325  23.803  0.00  0.00    -0.022 A 
ATOM     18  C   UNL d   1     -24.186  23.819  23.125  0.00  0.00     0.028 A 
ATOM     19  C   UNL d   1     -23.163  24.667  22.752  0.00  0.00     0.048 A 
ATOM     20  C   UNL d   1     -23.229  26.014  23.058  0.00  0.00     0.016 A 
ATOM     21  C   UNL d   1     -24.324  26.521  23.735  0.00  0.00     0.002 A 
ATOM     22  C   UNL d   1     -25.355  25.684  24.110  0.00  0.00     0.012 A 
BRANCH  19  23
ATOM     23  C   UNL d   1     -21.966  24.123  22.013  0.00  0.00     0.417 C 
ATOM     24  F   UNL d   1     -21.088  25.169  21.712  0.00  0.00    -0.166 F 
ATOM     25  F   UNL d   1     -21.313  23.181  22.815  0.00  0.00    -0.166 F 
ATOM     26  F   UNL d   1     -22.389  23.513  20.827  0.00  0.00    -0.166 F 
ENDBRANCH  19  23
ENDBRANCH  14  17
BRANCH  15  27
ATOM     27  O   UNL d   1     -26.685  22.727  21.937  0.00  0.00    -0.346 OA
BRANCH  27  28
ATOM     28  C   UNL d   1     -26.400  21.494  21.271  0.00  0.00     0.120 C 
ATOM     29  C   UNL d   1     -25.182  21.676  20.364  0.00  0.00     0.040 C 
ATOM     30  C   UNL d   1     -27.607  21.081  20.427  0.00  0.00     0.040 C 
ENDBRANCH  27  28
ENDBRANCH  15  27
ENDBRANCH   8  10
ENDBRANCH   3   6
BRANCH   2  31
ATOM     31  O   UNL d   1     -30.424  19.029  26.736  0.00  0.00    -0.364 OA
ATOM     32  H   UNL d   1     -30.366  19.249  27.676  0.00  0.00     0.217 HD
ENDBRANCH   2  31
TORSDOF 7
ENDMDL
