MODEL 1
REMARK VINA RESULT:      -9.5      0.000      0.000
REMARK  3 active torsions:
REMARK  status: ('A' for Active; 'I' for Inactive)
REMARK    1  A    between atoms: C_3  and  C_4 
REMARK       I    between atoms: C_4  and  N_6 
REMARK    2  A    between atoms: N_6  and  C_7 
REMARK    3  A    between atoms: C_18  and  N_19 
ROOT
ATOM      1  C   UNL d   1     -29.016  22.525  22.675  0.00  0.00     0.256 C 
ATOM      2  O   UNL d   1     -28.824  23.549  22.047  0.00  0.00    -0.267 OA
ATOM      3  N   UNL d   1     -27.984  21.709  22.964  0.00  0.00    -0.323 N 
ATOM      4  H   UNL d   1     -28.147  20.853  23.391  0.00  0.00     0.169 HD
ENDROOT
BRANCH   1   5
ATOM      5  C   UNL d   1     -30.381  22.177  23.121  0.00  0.00     0.040 A 
ATOM      6  C   UNL d   1     -31.409  22.034  22.186  0.00  0.00    -0.013 A 
ATOM      7  C   UNL d   1     -31.129  22.233  20.719  0.00  0.00     0.052 C 
ATOM      8  C   UNL d   1     -32.681  21.705  22.610  0.00  0.00     0.109 A 
ATOM      9  C   UNL d   1     -32.941  21.527  23.957  0.00  0.00     0.037 A 
ATOM     10  C   UNL d   1     -31.928  21.672  24.888  0.00  0.00     0.003 A 
ATOM     11  C   UNL d   1     -30.651  21.997  24.478  0.00  0.00     0.018 A 
BRANCH   8  12
ATOM     12  N   UNL d   1     -33.770  21.548  21.620  0.00  0.00    -0.115 N 
ATOM     13  O   UNL d   1     -34.359  22.529  21.203  0.00  0.00    -0.532 OA
ATOM     14  O   UNL d   1     -34.077  20.439  21.224  0.00  0.00    -0.532 OA
ENDBRANCH   8  12
ENDBRANCH   1   5
BRANCH   3  15
ATOM     15  C   UNL d   1     -26.677  22.095  22.647  0.00  0.00     0.038 A 
ATOM     16  C   UNL d   1     -26.057  21.585  21.515  0.00  0.00     0.075 A 
ATOM     17  C   UNL d   1     -24.764  21.968  21.204  0.00  0.00     0.157 A 
ATOM     18  C   UNL d   1     -24.089  22.859  22.025  0.00  0.00     0.154 A 
ATOM     19  F   UNL d   1     -24.159  21.473  20.103  0.00  0.00    -0.203 F 
ATOM     20  C   UNL d   1     -24.709  23.372  23.151  0.00  0.00     0.048 A 
ATOM     21  F   UNL d   1     -22.826  23.233  21.721  0.00  0.00    -0.203 F 
ATOM     22  C   UNL d   1     -25.998  22.988  23.467  0.00  0.00     0.032 A 
ENDBRANCH   3  15
TORSDOF 3
ENDMDL
