MODEL 1
REMARK VINA RESULT:     -10.8      0.000      0.000
REMARK  6 active torsions:
REMARK  status: ('A' for Active; 'I' for Inactive)
REMARK    1  A    between atoms: C_7  and  N_8 
REMARK       I    between atoms: N_8  and  C_9 
REMARK    2  A    between atoms: C_9  and  C_11 
REMARK    3  A    between atoms: C_15  and  N_16 
REMARK    4  A    between atoms: C_27  and  O_28 
REMARK    5  A    between atoms: O_28  and  C_29 
REMARK    6  A    between atoms: C_29  and  C_31 
ROOT
ATOM      1  C   UNL d   1     -24.286  24.401  23.428  0.00  0.00     0.068 A 
ATOM      2  C   UNL d   1     -25.148  24.923  24.400  0.00  0.00     0.064 A 
ATOM      3  C   UNL d   1     -26.402  24.382  24.568  0.00  0.00     0.146 A 
ATOM      4  F   UNL d   1     -27.236  24.891  25.502  0.00  0.00    -0.204 F 
ATOM      5  C   UNL d   1     -26.819  23.314  23.773  0.00  0.00     0.104 A 
ATOM      6  C   UNL d   1     -25.970  22.789  22.808  0.00  0.00     0.073 A 
ATOM      7  C   UNL d   1     -24.707  23.326  22.630  0.00  0.00     0.087 A 
ENDROOT
BRANCH   1   8
ATOM      8  C   UNL d   1     -22.944  24.976  23.245  0.00  0.00     0.260 C 
ATOM      9  N   UNL d   1     -21.867  24.351  23.759  0.00  0.00    -0.307 N 
ATOM     10  H   UNL d   1     -21.976  23.522  24.252  0.00  0.00     0.170 HD
ATOM     11  O   UNL d   1     -22.806  26.016  22.628  0.00  0.00    -0.267 OA
BRANCH   9  12
ATOM     12  C   UNL d   1     -20.596  24.895  23.586  0.00  0.00     0.136 A 
ATOM     13  C   UNL d   1     -20.096  25.790  24.524  0.00  0.00    -0.016 A 
ATOM     14  C   UNL d   1     -20.919  26.177  25.726  0.00  0.00     0.052 C 
ATOM     15  C   UNL d   1     -18.831  26.319  24.342  0.00  0.00     0.012 A 
ATOM     16  C   UNL d   1     -18.109  25.940  23.218  0.00  0.00     0.020 A 
ATOM     17  C   UNL d   1     -18.670  25.049  22.324  0.00  0.00     0.119 A 
ATOM     18  N   UNL d   1     -19.878  24.558  22.527  0.00  0.00    -0.243 NA
ENDBRANCH   9  12
ENDBRANCH   1   8
BRANCH   7  19
ATOM     19  O   UNL d   1     -23.877  22.814  21.686  0.00  0.00    -0.336 OA
BRANCH  19  20
ATOM     20  C   UNL d   1     -23.948  23.387  20.380  0.00  0.00     0.232 C 
ATOM     21  C   UNL d   1     -22.547  23.805  19.930  0.00  0.00     0.049 C 
BRANCH  20  22
ATOM     22  C   UNL d   1     -24.512  22.355  19.400  0.00  0.00     0.413 C 
ATOM     23  F   UNL d   1     -23.653  21.252  19.338  0.00  0.00    -0.168 F 
ATOM     24  F   UNL d   1     -25.775  21.939  19.837  0.00  0.00    -0.168 F 
ATOM     25  F   UNL d   1     -24.624  22.930  18.130  0.00  0.00    -0.168 F 
ENDBRANCH  20  22
ENDBRANCH  19  20
ENDBRANCH   7  19
BRANCH   5  26
ATOM     26  N   UNL d   1     -28.093  22.771  23.950  0.00  0.00    -0.178 N 
ATOM     27  C   UNL d   1     -28.500  22.005  24.987  0.00  0.00     0.351 A 
ATOM     28  N   UNL d   1     -29.796  21.716  24.786  0.00  0.00    -0.284 N 
ATOM     29  O   UNL d   1     -27.818  21.647  25.930  0.00  0.00    -0.244 OA
ATOM     30  C   UNL d   1     -30.187  22.278  23.589  0.00  0.00     0.131 A 
ATOM     31  C   UNL d   1     -30.689  20.959  25.671  0.00  0.00     0.135 C 
ATOM     32  N   UNL d   1     -29.188  22.922  23.086  0.00  0.00    -0.149 NA
ATOM     33  C   UNL d   1     -31.570  22.123  23.000  0.00  0.00     0.081 C 
ATOM     34  C   UNL d   1     -32.517  21.682  24.124  0.00  0.00     0.009 C 
ATOM     35  C   UNL d   1     -31.900  20.487  24.858  0.00  0.00     0.021 C 
ENDBRANCH   5  26
TORSDOF 6
ENDMDL
