MODEL 1
REMARK VINA RESULT:     -10.2      0.000      0.000
REMARK  7 active torsions:
REMARK  status: ('A' for Active; 'I' for Inactive)
REMARK    1  A    between atoms: C_2  and  C_3 
REMARK    2  A    between atoms: C_3  and  O_4 
REMARK    3  A    between atoms: C_5  and  C_8 
REMARK       I    between atoms: C_8  and  N_10 
REMARK    4  A    between atoms: N_10  and  C_11 
REMARK    5  A    between atoms: C_14  and  C_15 
REMARK    6  A    between atoms: C_22  and  C_23 
REMARK    7  A    between atoms: C_23  and  O_25 
ROOT
ATOM      1  C   UNL d   1     -32.447  21.566  22.680  0.00  0.00     0.069 C 
ATOM      2  C   UNL d   1     -31.571  21.674  23.718  0.00  0.00     0.141 C 
ATOM      3  C   UNL d   1     -31.953  21.235  25.027  0.00  0.00     0.107 C 
ATOM      4  N   UNL d   1     -32.257  20.887  26.064  0.00  0.00    -0.191 NA
ENDROOT
BRANCH   2   5
ATOM      5  C   UNL d   1     -30.234  22.243  23.495  0.00  0.00     0.269 C 
ATOM      6  O   UNL d   1     -30.089  23.170  22.722  0.00  0.00    -0.266 OA
ATOM      7  N   UNL d   1     -29.169  21.737  24.147  0.00  0.00    -0.322 N 
ATOM      8  H   UNL d   1     -29.294  21.049  24.820  0.00  0.00     0.169 HD
BRANCH   7   9
ATOM      9  C   UNL d   1     -27.884  22.202  23.855  0.00  0.00     0.036 A 
ATOM     10  C   UNL d   1     -27.217  21.730  22.734  0.00  0.00     0.048 A 
ATOM     11  C   UNL d   1     -25.937  22.199  22.439  0.00  0.00     0.052 A 
ATOM     12  C   UNL d   1     -25.327  23.140  23.289  0.00  0.00    -0.009 A 
ATOM     13  C   UNL d   1     -26.011  23.603  24.409  0.00  0.00     0.015 A 
ATOM     14  C   UNL d   1     -27.278  23.138  24.689  0.00  0.00     0.030 A 
BRANCH  11  15
ATOM     15  C   UNL d   1     -25.224  21.705  21.246  0.00  0.00     0.293 C 
ATOM     16  O   UNL d   1     -24.471  20.755  21.338  0.00  0.00    -0.259 OA
BRANCH  15  17
ATOM     17  O   UNL d   1     -25.408  22.306  20.054  0.00  0.00    -0.322 OA
ATOM     18  C   UNL d   1     -24.217  22.625  19.286  0.00  0.00     0.213 C 
ENDBRANCH  15  17
ENDBRANCH  11  15
BRANCH  12  19
ATOM     19  C   UNL d   1     -23.966  23.641  22.988  0.00  0.00    -0.025 A 
ATOM     20  C   UNL d   1     -23.799  24.836  22.288  0.00  0.00     0.014 A 
ATOM     21  C   UNL d   1     -22.528  25.297  22.009  0.00  0.00     0.024 A 
ATOM     22  C   UNL d   1     -21.421  24.579  22.429  0.00  0.00     0.034 A 
ATOM     23  C   UNL d   1     -21.581  23.389  23.119  0.00  0.00     0.024 A 
ATOM     24 CL   UNL d   1     -19.825  25.169  22.082  0.00  0.00    -0.084 Cl
ATOM     25  C   UNL d   1     -22.847  22.919  23.402  0.00  0.00     0.014 A 
ENDBRANCH  12  19
ENDBRANCH   7   9
ENDBRANCH   2   5
BRANCH   1  26
ATOM     26  C   UNL d   1     -33.818  20.982  22.908  0.00  0.00     0.061 C 
ATOM     27  C   UNL d   1     -34.186  20.071  21.736  0.00  0.00     0.012 C 
ENDBRANCH   1  26
BRANCH   1  28
ATOM     28  O   UNL d   1     -32.089  21.978  21.451  0.00  0.00    -0.363 OA
ATOM     29  H   UNL d   1     -31.315  21.555  21.055  0.00  0.00     0.217 HD
ENDBRANCH   1  28
TORSDOF 7
ENDMDL
