MODEL 1
REMARK VINA RESULT:     -10.6      0.000      0.000
REMARK  5 active torsions:
REMARK  status: ('A' for Active; 'I' for Inactive)
REMARK    1  A    between atoms: C_7  and  C_8 
REMARK    2  A    between atoms: C_12  and  N_13 
REMARK    3  A    between atoms: N_13  and  C_14 
REMARK    4  A    between atoms: C_19  and  C_20 
REMARK    5  A    between atoms: C_20  and  O_22 
ROOT
ATOM      1  C   UNL d   1     -24.414  23.546  22.458  0.00  0.00    -0.019 A 
ATOM      2  C   UNL d   1     -25.000  24.354  23.431  0.00  0.00     0.057 A 
ATOM      3  C   UNL d   1     -26.193  23.978  24.014  0.00  0.00     0.146 A 
ATOM      4  F   UNL d   1     -26.761  24.761  24.956  0.00  0.00    -0.204 F 
ATOM      5  C   UNL d   1     -26.811  22.791  23.631  0.00  0.00     0.112 A 
ATOM      6  C   UNL d   1     -26.225  21.980  22.665  0.00  0.00     0.146 A 
ATOM      7  F   UNL d   1     -26.824  20.826  22.299  0.00  0.00    -0.204 F 
ATOM      8  C   UNL d   1     -25.034  22.356  22.076  0.00  0.00     0.057 A 
ENDROOT
BRANCH   5   9
ATOM      9  N   UNL d   1     -28.020  22.410  24.224  0.00  0.00    -0.335 N 
ATOM     10  H   UNL d   1     -28.048  22.184  25.167  0.00  0.00     0.168 HD
BRANCH   9  11
ATOM     11  C   UNL d   1     -29.175  22.357  23.465  0.00  0.00     0.144 A 
ATOM     12  C   UNL d   1     -30.379  21.932  24.054  0.00  0.00     0.083 A 
ATOM     13  C   UNL d   1     -31.536  21.886  23.265  0.00  0.00     0.024 A 
ATOM     14  C   UNL d   1     -31.441  22.263  21.938  0.00  0.00     0.020 A 
ATOM     15  C   UNL d   1     -30.219  22.666  21.429  0.00  0.00     0.119 A 
ATOM     16  N   UNL d   1     -29.142  22.707  22.188  0.00  0.00    -0.242 NA
BRANCH  12  17
ATOM     17  C   UNL d   1     -30.424  21.541  25.473  0.00  0.00     0.180 C 
ATOM     18  O   UNL d   1     -31.340  21.920  26.178  0.00  0.00    -0.646 OA
BRANCH  17  19
ATOM     19  O   UNL d   1     -29.451  20.767  25.991  0.00  0.00    -0.773 OA
ATOM     20  H   UNL d   1     -29.706  19.885  26.296  0.00  0.00     0.167 HD
ENDBRANCH  17  19
ENDBRANCH  12  17
ENDBRANCH   9  11
ENDBRANCH   5   9
BRANCH   1  21
ATOM     21  C   UNL d   1     -23.131  23.948  21.831  0.00  0.00    -0.020 A 
ATOM     22  C   UNL d   1     -21.931  23.769  22.515  0.00  0.00    -0.051 A 
ATOM     23  C   UNL d   1     -21.932  23.165  23.896  0.00  0.00     0.049 C 
ATOM     24  C   UNL d   1     -20.741  24.145  21.926  0.00  0.00     0.007 A 
ATOM     25  C   UNL d   1     -20.738  24.700  20.659  0.00  0.00     0.001 A 
ATOM     26  C   UNL d   1     -21.927  24.880  19.975  0.00  0.00     0.001 A 
ATOM     27  C   UNL d   1     -23.122  24.502  20.552  0.00  0.00     0.013 A 
ENDBRANCH   1  21
TORSDOF 5
ENDMDL
