MODEL 1
REMARK VINA RESULT:      -7.6      0.000      0.000
REMARK  7 active torsions:
REMARK  status: ('A' for Active; 'I' for Inactive)
REMARK    1  A    between atoms: C_2  and  N_3 
REMARK    2  A    between atoms: C_4  and  C_5 
REMARK    3  A    between atoms: C_5  and  O_6 
REMARK    4  A    between atoms: N_8  and  C_9 
REMARK    5  A    between atoms: C_12  and  C_13 
REMARK    6  A    between atoms: N_17  and  C_18 
REMARK    7  A    between atoms: C_23  and  O_24 
ROOT
ATOM      1  C   UNL d   1     -20.726  24.562  22.527  0.00  0.00     0.103 A 
ATOM      2  C   UNL d   1     -20.746  25.257  23.724  0.00  0.00     0.048 A 
ATOM      3  C   UNL d   1     -19.561  25.793  24.224  0.00  0.00    -0.010 A 
ATOM      4  C   UNL d   1     -19.517  26.532  25.487  0.00  0.00    -0.027 A 
ATOM      5  C   UNL d   1     -18.349  27.030  25.919  0.00  0.00     0.109 A 
ATOM      6  N   UNL d   1     -17.183  26.875  25.220  0.00  0.00    -0.287 N 
ATOM      7  C   UNL d   1     -17.130  26.210  24.049  0.00  0.00     0.263 A 
ATOM      8  O   UNL d   1     -16.072  26.092  23.456  0.00  0.00    -0.267 OA
ATOM      9  C   UNL d   1     -18.356  25.630  23.498  0.00  0.00     0.046 A 
ATOM     10  C   UNL d   1     -18.362  24.930  22.290  0.00  0.00     0.062 A 
ATOM     11  C   UNL d   1     -19.533  24.406  21.816  0.00  0.00     0.146 A 
ATOM     12  F   UNL d   1     -19.536  23.729  20.646  0.00  0.00    -0.204 F 
ENDROOT
BRANCH   1  13
ATOM     13  N   UNL d   1     -21.910  24.017  22.022  0.00  0.00    -0.178 N 
ATOM     14  N   UNL d   1     -22.759  23.119  22.683  0.00  0.00    -0.147 NA
ATOM     15  C   UNL d   1     -23.752  22.850  21.897  0.00  0.00     0.154 A 
ATOM     16  N   UNL d   1     -23.584  23.538  20.720  0.00  0.00    -0.283 N 
ATOM     17  C   UNL d   1     -22.447  24.258  20.808  0.00  0.00     0.351 A 
ATOM     18  O   UNL d   1     -21.989  24.990  19.949  0.00  0.00    -0.244 OA
BRANCH  15  19
ATOM     19  C   UNL d   1     -24.900  21.929  22.218  0.00  0.00     0.244 C 
BRANCH  19  20
ATOM     20  O   UNL d   1     -24.716  20.684  21.542  0.00  0.00    -0.393 OA
ATOM     21  H   UNL d   1     -24.906  20.718  20.594  0.00  0.00     0.209 HD
ENDBRANCH  19  20
ENDBRANCH  15  19
BRANCH  16  22
ATOM     22  C   UNL d   1     -24.489  23.501  19.569  0.00  0.00     0.131 C 
ATOM     23  C   UNL d   1     -24.162  22.285  18.701  0.00  0.00     0.027 C 
ENDBRANCH  16  22
ENDBRANCH   1  13
BRANCH   4  24
ATOM     24  C   UNL d   1     -20.774  26.731  26.295  0.00  0.00     0.013 C 
ATOM     25  C   UNL d   1     -20.445  26.622  27.785  0.00  0.00     0.015 C 
ATOM     26  C   UNL d   1     -21.357  28.115  26.001  0.00  0.00     0.015 C 
ENDBRANCH   4  24
BRANCH   6  27
ATOM     27  C   UNL d   1     -16.007  27.425  25.737  0.00  0.00     0.059 A 
ATOM     28  C   UNL d   1     -15.613  28.714  25.396  0.00  0.00     0.019 A 
ATOM     29  C   UNL d   1     -14.439  29.224  25.930  0.00  0.00     0.172 A 
ATOM     30  C   UNL d   1     -16.450  29.547  24.460  0.00  0.00     0.055 C 
ATOM     31  N   UNL d   1     -13.700  28.496  26.752  0.00  0.00    -0.236 NA
ATOM     32  C   UNL d   1     -14.044  27.268  27.096  0.00  0.00     0.128 A 
ATOM     33  C   UNL d   1     -15.200  26.695  26.612  0.00  0.00    -0.016 A 
ATOM     34  C   UNL d   1     -15.586  25.296  27.016  0.00  0.00     0.052 C 
BRANCH  29  35
ATOM     35  O   UNL d   1     -14.043  30.480  25.606  0.00  0.00    -0.339 OA
ATOM     36  C   UNL d   1     -13.904  31.414  26.680  0.00  0.00     0.211 C 
ENDBRANCH  29  35
ENDBRANCH   6  27
TORSDOF 7
ENDMDL
