MODEL 1
REMARK VINA RESULT:      -8.0      0.000      0.000
REMARK  7 active torsions:
REMARK  status: ('A' for Active; 'I' for Inactive)
REMARK    1  A    between atoms: C_2  and  N_3 
REMARK    2  A    between atoms: C_4  and  C_5 
REMARK    3  A    between atoms: C_5  and  O_6 
REMARK    4  A    between atoms: N_8  and  C_9 
REMARK    5  A    between atoms: C_12  and  C_13 
REMARK    6  A    between atoms: N_17  and  C_18 
REMARK    7  A    between atoms: C_20  and  O_21 
ROOT
ATOM      1  C   UNL d   1     -21.924  24.420  22.988  0.00  0.00     0.103 A 
ATOM      2  C   UNL d   1     -21.574  25.091  24.148  0.00  0.00     0.048 A 
ATOM      3  C   UNL d   1     -20.297  25.635  24.264  0.00  0.00    -0.010 A 
ATOM      4  C   UNL d   1     -19.869  26.356  25.466  0.00  0.00    -0.027 A 
ATOM      5  C   UNL d   1     -18.626  26.861  25.524  0.00  0.00     0.110 A 
ATOM      6  N   UNL d   1     -17.733  26.728  24.496  0.00  0.00    -0.271 N 
ATOM      7  C   UNL d   1     -18.042  26.086  23.352  0.00  0.00     0.264 A 
ATOM      8  O   UNL d   1     -17.221  25.993  22.458  0.00  0.00    -0.267 OA
ATOM      9  C   UNL d   1     -19.376  25.497  23.199  0.00  0.00     0.046 A 
ATOM     10  C   UNL d   1     -19.751  24.815  22.039  0.00  0.00     0.062 A 
ATOM     11  C   UNL d   1     -21.007  24.287  21.941  0.00  0.00     0.146 A 
ATOM     12  F   UNL d   1     -21.369  23.629  20.818  0.00  0.00    -0.204 F 
ENDROOT
BRANCH   1  13
ATOM     13  N   UNL d   1     -23.203  23.871  22.865  0.00  0.00    -0.178 N 
ATOM     14  N   UNL d   1     -23.539  22.692  22.187  0.00  0.00    -0.147 NA
ATOM     15  C   UNL d   1     -24.816  22.514  22.295  0.00  0.00     0.154 A 
ATOM     16  N   UNL d   1     -25.347  23.546  23.030  0.00  0.00    -0.283 N 
ATOM     17  C   UNL d   1     -24.343  24.375  23.382  0.00  0.00     0.351 A 
ATOM     18  O   UNL d   1     -24.447  25.393  24.043  0.00  0.00    -0.244 OA
BRANCH  15  19
ATOM     19  C   UNL d   1     -25.595  21.364  21.711  0.00  0.00     0.244 C 
BRANCH  19  20
ATOM     20  O   UNL d   1     -26.170  21.763  20.465  0.00  0.00    -0.393 OA
ATOM     21  H   UNL d   1     -25.988  22.682  20.224  0.00  0.00     0.209 HD
ENDBRANCH  19  20
ENDBRANCH  15  19
BRANCH  16  22
ATOM     22  C   UNL d   1     -26.759  23.714  23.378  0.00  0.00     0.131 C 
ATOM     23  C   UNL d   1     -27.021  23.106  24.758  0.00  0.00     0.027 C 
ENDBRANCH  16  22
ENDBRANCH   1  13
BRANCH   4  24
ATOM     24  C   UNL d   1     -20.814  26.529  26.626  0.00  0.00     0.013 C 
ATOM     25  C   UNL d   1     -20.042  26.379  27.939  0.00  0.00     0.015 C 
ATOM     26  C   UNL d   1     -21.449  27.920  26.565  0.00  0.00     0.015 C 
ENDBRANCH   4  24
BRANCH   6  27
ATOM     27  C   UNL d   1     -16.459  27.282  24.634  0.00  0.00     0.161 A 
ATOM     28  C   UNL d   1     -15.439  26.526  25.200  0.00  0.00     0.080 A 
ATOM     29  C   UNL d   1     -14.177  27.085  25.331  0.00  0.00     0.032 A 
ATOM     30 CL   UNL d   1     -15.742  24.904  25.737  0.00  0.00    -0.080 Cl
ATOM     31  C   UNL d   1     -13.977  28.382  24.886  0.00  0.00     0.060 A 
ATOM     32  C   UNL d   1     -15.041  29.081  24.335  0.00  0.00     0.166 A 
ATOM     33  N   UNL d   1     -16.234  28.520  24.223  0.00  0.00    -0.205 NA
BRANCH  32  34
ATOM     34  O   UNL d   1     -14.856  30.353  23.900  0.00  0.00    -0.339 OA
ATOM     35  C   UNL d   1     -15.939  30.964  23.196  0.00  0.00     0.211 C 
ENDBRANCH  32  34
ENDBRANCH   6  27
TORSDOF 7
ENDMDL
