MODEL 1
REMARK VINA RESULT:     -10.3      0.000      0.000
REMARK  8 active torsions:
REMARK  status: ('A' for Active; 'I' for Inactive)
REMARK    1  A    between atoms: C_2  and  O_3 
REMARK    2  A    between atoms: C_2  and  C_32 
REMARK    3  A    between atoms: O_3  and  C_4 
REMARK    4  A    between atoms: C_6  and  N_7 
REMARK    5  A    between atoms: C_9  and  C_10 
REMARK    6  A    between atoms: C_10  and  O_12 
REMARK    7  A    between atoms: C_20  and  C_21 
REMARK       I    between atoms: C_21  and  N_23 
REMARK    8  A    between atoms: N_23  and  C_24 
ROOT
ATOM      1  C   UNL d   1     -24.734  23.312  22.684  0.00  0.00     0.087 A 
ATOM      2  C   UNL d   1     -25.989  22.756  22.866  0.00  0.00     0.073 A 
ATOM      3  C   UNL d   1     -26.846  23.274  23.828  0.00  0.00     0.105 A 
ATOM      4  C   UNL d   1     -26.443  24.348  24.621  0.00  0.00     0.146 A 
ATOM      5  F   UNL d   1     -27.280  24.843  25.559  0.00  0.00    -0.204 F 
ATOM      6  C   UNL d   1     -25.195  24.904  24.452  0.00  0.00     0.064 A 
ATOM      7  C   UNL d   1     -24.328  24.392  23.481  0.00  0.00     0.068 A 
ENDROOT
BRANCH   7   8
ATOM      8  C   UNL d   1     -22.991  24.985  23.296  0.00  0.00     0.259 C 
ATOM      9  O   UNL d   1     -22.862  26.001  22.642  0.00  0.00    -0.267 OA
ATOM     10  N   UNL d   1     -21.912  24.400  23.854  0.00  0.00    -0.318 N 
ATOM     11  H   UNL d   1     -22.002  23.546  24.305  0.00  0.00     0.169 HD
BRANCH  10  12
ATOM     12  C   UNL d   1     -20.661  25.027  23.782  0.00  0.00     0.113 A 
ATOM     13  C   UNL d   1     -20.315  25.998  24.715  0.00  0.00     0.146 A 
ATOM     14  C   UNL d   1     -19.079  26.615  24.641  0.00  0.00     0.045 A 
ATOM     15  F   UNL d   1     -21.184  26.340  25.691  0.00  0.00    -0.204 F 
ATOM     16  C   UNL d   1     -18.189  26.267  23.642  0.00  0.00     0.006 A 
ATOM     17  C   UNL d   1     -18.530  25.301  22.713  0.00  0.00     0.045 A 
ATOM     18  C   UNL d   1     -19.762  24.676  22.783  0.00  0.00     0.146 A 
ATOM     19  F   UNL d   1     -20.092  23.729  21.878  0.00  0.00    -0.204 F 
ENDBRANCH  10  12
ENDBRANCH   7   8
BRANCH   1  20
ATOM     20  O   UNL d   1     -23.898  22.810  21.740  0.00  0.00    -0.336 OA
BRANCH  20  21
ATOM     21  C   UNL d   1     -23.992  23.366  20.428  0.00  0.00     0.232 C 
ATOM     22  C   UNL d   1     -22.600  23.784  19.950  0.00  0.00     0.049 C 
BRANCH  21  23
ATOM     23  C   UNL d   1     -24.567  22.320  19.470  0.00  0.00     0.413 C 
ATOM     24  F   UNL d   1     -23.754  21.182  19.481  0.00  0.00    -0.168 F 
ATOM     25  F   UNL d   1     -25.859  21.975  19.878  0.00  0.00    -0.168 F 
ATOM     26  F   UNL d   1     -24.612  22.849  18.175  0.00  0.00    -0.168 F 
ENDBRANCH  21  23
ENDBRANCH  20  21
ENDBRANCH   1  20
BRANCH   3  27
ATOM     27  N   UNL d   1     -28.114  22.714  24.005  0.00  0.00    -0.177 N 
ATOM     28  C   UNL d   1     -29.133  22.755  23.123  0.00  0.00     0.351 A 
ATOM     29  N   UNL d   1     -30.175  22.101  23.671  0.00  0.00    -0.280 N 
ATOM     30  O   UNL d   1     -29.114  23.287  22.029  0.00  0.00    -0.244 OA
ATOM     31  C   UNL d   1     -29.793  21.644  24.921  0.00  0.00     0.228 A 
ATOM     32  C   UNL d   1     -31.489  21.907  23.052  0.00  0.00     0.163 C 
ATOM     33  N   UNL d   1     -28.558  22.013  25.133  0.00  0.00    -0.137 NA
BRANCH  31  34
ATOM     34  C   UNL d   1     -30.637  20.881  25.856  0.00  0.00     0.215 C 
ATOM     35  O   UNL d   1     -31.493  21.449  26.504  0.00  0.00    -0.644 OA
BRANCH  34  36
ATOM     36  O   UNL d   1     -30.462  19.551  25.990  0.00  0.00    -0.770 OA
ATOM     37  H   UNL d   1     -29.898  19.254  26.717  0.00  0.00     0.168 HD
ENDBRANCH  34  36
ENDBRANCH  31  34
ENDBRANCH   3  27
TORSDOF 8
ENDMDL
