MODEL 1
REMARK VINA RESULT:     -10.1      0.000      0.000
REMARK  5 active torsions:
REMARK  status: ('A' for Active; 'I' for Inactive)
REMARK    1  A    between atoms: C_2  and  O_3 
REMARK    2  A    between atoms: C_2  and  C_4 
REMARK    3  A    between atoms: C_8  and  C_9 
REMARK       I    between atoms: C_9  and  N_11 
REMARK    4  A    between atoms: N_11  and  C_12 
REMARK    5  A    between atoms: C_15  and  C_16 
ROOT
ATOM      1  C   UNL d   1     -29.918  22.191  23.322  0.00  0.00     0.257 C 
ATOM      2  O   UNL d   1     -29.808  23.155  22.588  0.00  0.00    -0.267 OA
ATOM      3  N   UNL d   1     -28.817  21.608  23.837  0.00  0.00    -0.323 N 
ATOM      4  H   UNL d   1     -28.906  20.890  24.484  0.00  0.00     0.169 HD
ENDROOT
BRANCH   3   5
ATOM      5  C   UNL d   1     -27.548  22.038  23.440  0.00  0.00     0.035 A 
ATOM      6  C   UNL d   1     -26.863  22.976  24.205  0.00  0.00     0.030 A 
ATOM      7  C   UNL d   1     -25.611  23.402  23.816  0.00  0.00     0.014 A 
ATOM      8  C   UNL d   1     -25.032  22.892  22.655  0.00  0.00    -0.026 A 
ATOM      9  C   UNL d   1     -25.721  21.951  21.889  0.00  0.00     0.014 A 
ATOM     10  C   UNL d   1     -26.970  21.524  22.285  0.00  0.00     0.030 A 
BRANCH   8  11
ATOM     11  C   UNL d   1     -23.685  23.348  22.234  0.00  0.00    -0.026 A 
ATOM     12  C   UNL d   1     -22.614  23.277  23.122  0.00  0.00     0.012 A 
ATOM     13  C   UNL d   1     -21.361  23.702  22.725  0.00  0.00     0.001 A 
ATOM     14  C   UNL d   1     -21.170  24.198  21.448  0.00  0.00     0.000 A 
ATOM     15  C   UNL d   1     -22.230  24.270  20.561  0.00  0.00     0.001 A 
ATOM     16  C   UNL d   1     -23.485  23.842  20.947  0.00  0.00     0.012 A 
ENDBRANCH   8  11
ENDBRANCH   3   5
BRANCH   1  17
ATOM     17  C   UNL d   1     -31.252  21.666  23.652  0.00  0.00     0.056 A 
ATOM     18  C   UNL d   1     -31.585  21.040  24.923  0.00  0.00     0.060 A 
ATOM     19  C   UNL d   1     -32.873  20.649  24.977  0.00  0.00     0.068 A 
ATOM     20  S   UNL d   1     -33.685  21.009  23.524  0.00  0.00    -0.112 SA
ATOM     21  C   UNL d   1     -32.303  21.705  22.813  0.00  0.00     0.067 A 
BRANCH  18  22
ATOM     22  C   UNL d   1     -30.628  20.858  26.024  0.00  0.00     0.177 C 
ATOM     23  O   UNL d   1     -30.190  21.826  26.615  0.00  0.00    -0.646 OA
BRANCH  22  24
ATOM     24  O   UNL d   1     -30.235  19.618  26.379  0.00  0.00    -0.773 OA
ATOM     25  H   UNL d   1     -30.622  18.879  25.890  0.00  0.00     0.167 HD
ENDBRANCH  22  24
ENDBRANCH  18  22
ENDBRANCH   1  17
TORSDOF 5
ENDMDL
