MODEL 1
REMARK VINA RESULT:      -9.4      0.000      0.000
REMARK  6 active torsions:
REMARK  status: ('A' for Active; 'I' for Inactive)
REMARK    1  A    between atoms: C_8  and  N_9 
REMARK       I    between atoms: N_9  and  C_10 
REMARK    2  A    between atoms: C_10  and  C_12 
REMARK    3  A    between atoms: C_16  and  N_17 
REMARK    4  A    between atoms: C_28  and  O_29 
REMARK    5  A    between atoms: O_29  and  C_30 
REMARK    6  A    between atoms: C_30  and  C_32 
ROOT
ATOM      1  C   UNL d   1     -25.442  22.469  22.356  0.00  0.00     0.068 A 
ATOM      2  C   UNL d   1     -26.110  21.677  21.415  0.00  0.00     0.064 A 
ATOM      3  C   UNL d   1     -27.479  21.545  21.474  0.00  0.00     0.146 A 
ATOM      4  F   UNL d   1     -28.122  20.780  20.565  0.00  0.00    -0.204 F 
ATOM      5  C   UNL d   1     -28.204  22.200  22.470  0.00  0.00     0.104 A 
ATOM      6  C   UNL d   1     -27.549  22.988  23.407  0.00  0.00     0.073 A 
ATOM      7  C   UNL d   1     -26.172  23.122  23.360  0.00  0.00     0.087 A 
ENDROOT
BRANCH   1   8
ATOM      8  C   UNL d   1     -23.978  22.612  22.295  0.00  0.00     0.259 C 
ATOM      9  N   UNL d   1     -23.424  23.834  22.171  0.00  0.00    -0.320 N 
ATOM     10  H   UNL d   1     -23.984  24.626  22.205  0.00  0.00     0.169 HD
ATOM     11  O   UNL d   1     -23.268  21.626  22.356  0.00  0.00    -0.267 OA
BRANCH   9  12
ATOM     12  C   UNL d   1     -22.041  23.962  21.994  0.00  0.00     0.080 A 
ATOM     13  C   UNL d   1     -21.525  24.259  20.741  0.00  0.00    -0.032 A 
ATOM     14  C   UNL d   1     -22.453  24.443  19.567  0.00  0.00     0.050 C 
ATOM     15  C   UNL d   1     -20.159  24.390  20.570  0.00  0.00     0.009 A 
ATOM     16  C   UNL d   1     -19.307  24.217  21.644  0.00  0.00     0.004 A 
ATOM     17  C   UNL d   1     -19.817  23.921  22.896  0.00  0.00     0.045 A 
ATOM     18  C   UNL d   1     -21.182  23.793  23.075  0.00  0.00     0.143 A 
ATOM     19  F   UNL d   1     -21.680  23.505  24.297  0.00  0.00    -0.204 F 
ENDBRANCH   9  12
ENDBRANCH   1   8
BRANCH   7  20
ATOM     20  O   UNL d   1     -25.531  23.887  24.279  0.00  0.00    -0.341 OA
BRANCH  20  21
ATOM     21  C   UNL d   1     -25.702  25.303  24.177  0.00  0.00     0.158 C 
ATOM     22  C   UNL d   1     -26.531  25.803  25.361  0.00  0.00     0.045 C 
BRANCH  21  23
ATOM     23  C   UNL d   1     -24.353  25.973  24.188  0.00  0.00    -0.029 A 
ATOM     24  C   UNL d   1     -23.568  25.927  25.324  0.00  0.00     0.010 A 
ATOM     25  C   UNL d   1     -22.329  26.541  25.335  0.00  0.00     0.001 A 
ATOM     26  C   UNL d   1     -21.876  27.202  24.208  0.00  0.00     0.000 A 
ATOM     27  C   UNL d   1     -22.661  27.247  23.071  0.00  0.00     0.001 A 
ATOM     28  C   UNL d   1     -23.897  26.629  23.059  0.00  0.00     0.010 A 
ENDBRANCH  21  23
ENDBRANCH  20  21
ENDBRANCH   7  20
BRANCH   5  29
ATOM     29  N   UNL d   1     -29.592  22.063  22.524  0.00  0.00    -0.178 N 
ATOM     30  C   UNL d   1     -30.321  21.717  23.607  0.00  0.00     0.351 A 
ATOM     31  N   UNL d   1     -31.613  21.727  23.242  0.00  0.00    -0.284 N 
ATOM     32  O   UNL d   1     -29.886  21.445  24.713  0.00  0.00    -0.244 OA
ATOM     33  C   UNL d   1     -31.682  22.050  21.902  0.00  0.00     0.131 A 
ATOM     34  C   UNL d   1     -32.784  21.475  24.090  0.00  0.00     0.135 C 
ATOM     35  N   UNL d   1     -30.490  22.268  21.464  0.00  0.00    -0.149 NA
ATOM     36  C   UNL d   1     -32.974  22.110  21.119  0.00  0.00     0.081 C 
ATOM     37  C   UNL d   1     -34.131  22.226  22.121  0.00  0.00     0.009 C 
ATOM     38  C   UNL d   1     -33.978  21.138  23.189  0.00  0.00     0.021 C 
ENDBRANCH   5  29
TORSDOF 6
ENDMDL
