MODEL 1
REMARK VINA RESULT:     -10.6      0.000      0.000
REMARK  7 active torsions:
REMARK  status: ('A' for Active; 'I' for Inactive)
REMARK    1  A    between atoms: C_2  and  C_3 
REMARK    2  A    between atoms: C_3  and  C_4 
REMARK    3  A    between atoms: C_4  and  O_6 
REMARK    4  A    between atoms: O_6  and  C_7 
REMARK    5  A    between atoms: C_9  and  N_10 
REMARK    6  A    between atoms: C_23  and  C_24 
REMARK       I    between atoms: C_24  and  N_26 
REMARK    7  A    between atoms: N_26  and  C_27 
ROOT
ATOM      1  C   UNL d   1     -26.228  23.216  23.297  0.00  0.00     0.087 A 
ATOM      2  C   UNL d   1     -27.605  23.070  23.323  0.00  0.00     0.073 A 
ATOM      3  C   UNL d   1     -28.233  22.242  22.402  0.00  0.00     0.105 A 
ATOM      4  C   UNL d   1     -27.482  21.554  21.448  0.00  0.00     0.146 A 
ATOM      5  F   UNL d   1     -28.101  20.750  20.556  0.00  0.00    -0.204 F 
ATOM      6  C   UNL d   1     -26.113  21.693  21.414  0.00  0.00     0.064 A 
ATOM      7  C   UNL d   1     -25.472  22.526  22.338  0.00  0.00     0.068 A 
ENDROOT
BRANCH   7   8
ATOM      8  C   UNL d   1     -24.007  22.676  22.306  0.00  0.00     0.259 C 
ATOM      9  O   UNL d   1     -23.294  21.694  22.395  0.00  0.00    -0.267 OA
ATOM     10  N   UNL d   1     -23.458  23.900  22.181  0.00  0.00    -0.318 N 
ATOM     11  H   UNL d   1     -24.023  24.688  22.192  0.00  0.00     0.169 HD
BRANCH  10  12
ATOM     12  C   UNL d   1     -22.071  24.033  22.037  0.00  0.00     0.113 A 
ATOM     13  C   UNL d   1     -21.521  24.264  20.781  0.00  0.00     0.146 A 
ATOM     14  C   UNL d   1     -20.151  24.394  20.642  0.00  0.00     0.045 A 
ATOM     15  F   UNL d   1     -22.323  24.360  19.698  0.00  0.00    -0.204 F 
ATOM     16  C   UNL d   1     -19.329  24.298  21.749  0.00  0.00     0.006 A 
ATOM     17  C   UNL d   1     -19.872  24.068  23.001  0.00  0.00     0.045 A 
ATOM     18  C   UNL d   1     -21.242  23.942  23.149  0.00  0.00     0.146 A 
ATOM     19  F   UNL d   1     -21.773  23.725  24.372  0.00  0.00    -0.204 F 
ENDBRANCH  10  12
ENDBRANCH   7   8
BRANCH   1  20
ATOM     20  O   UNL d   1     -25.614  24.025  24.196  0.00  0.00    -0.345 OA
BRANCH  20  21
ATOM     21  C   UNL d   1     -25.932  25.417  24.141  0.00  0.00     0.124 C 
ATOM     22  C   UNL d   1     -26.321  25.906  25.538  0.00  0.00     0.040 C 
BRANCH  21  23
ATOM     23  C   UNL d   1     -24.714  26.200  23.648  0.00  0.00     0.032 C 
BRANCH  23  24
ATOM     24  C   UNL d   1     -23.670  26.276  24.764  0.00  0.00    -0.002 C 
ATOM     25  C   UNL d   1     -22.448  27.051  24.268  0.00  0.00     0.005 C 
ENDBRANCH  23  24
ENDBRANCH  21  23
ENDBRANCH  20  21
ENDBRANCH   1  20
BRANCH   3  26
ATOM     26  N   UNL d   1     -29.620  22.092  22.436  0.00  0.00    -0.177 N 
ATOM     27  C   UNL d   1     -30.361  21.781  23.518  0.00  0.00     0.355 A 
ATOM     28  N   UNL d   1     -31.654  21.732  23.137  0.00  0.00    -0.256 N 
ATOM     29  O   UNL d   1     -29.939  21.580  24.644  0.00  0.00    -0.244 OA
ATOM     30  C   UNL d   1     -31.716  22.019  21.786  0.00  0.00     0.158 A 
ATOM     31  C   UNL d   1     -32.806  21.463  23.835  0.00  0.00     0.103 A 
ATOM     32  N   UNL d   1     -30.497  22.243  21.353  0.00  0.00    -0.144 NA
ATOM     33  C   UNL d   1     -32.973  22.033  21.131  0.00  0.00     0.053 A 
ATOM     34  C   UNL d   1     -34.096  21.765  21.842  0.00  0.00     0.005 A 
ATOM     35  C   UNL d   1     -34.002  21.476  23.218  0.00  0.00     0.018 A 
ENDBRANCH   3  26
TORSDOF 7
ENDMDL
