MODEL 1
REMARK VINA RESULT:      -8.9      0.000      0.000
REMARK  5 active torsions:
REMARK  status: ('A' for Active; 'I' for Inactive)
REMARK    1  A    between atoms: C_2  and  O_3 
REMARK    2  A    between atoms: C_2  and  C_11 
REMARK    3  A    between atoms: O_3  and  C_4 
REMARK    4  A    between atoms: C_4  and  C_5 
REMARK    5  A    between atoms: C_13  and  C_14 
ROOT
ATOM      1  C   UNL d   1     -20.456  26.486  25.052  0.00  0.00     0.054 A 
ATOM      2  C   UNL d   1     -21.314  25.840  24.174  0.00  0.00     0.051 A 
ATOM      3  C   UNL d   1     -20.805  25.306  22.981  0.00  0.00     0.068 A 
ATOM      4  N   UNL d   1     -19.532  25.393  22.658  0.00  0.00    -0.247 NA
ATOM      5  C   UNL d   1     -18.637  25.997  23.441  0.00  0.00     0.070 A 
ATOM      6  C   UNL d   1     -17.283  26.081  23.067  0.00  0.00     0.058 A 
ATOM      7  C   UNL d   1     -16.391  26.699  23.889  0.00  0.00     0.058 A 
ATOM      8 CL   UNL d   1     -14.722  26.793  23.423  0.00  0.00    -0.082 Cl
ATOM      9  C   UNL d   1     -16.800  27.265  25.098  0.00  0.00     0.056 A 
ATOM     10 CL   UNL d   1     -15.633  28.050  26.115  0.00  0.00    -0.083 Cl
ATOM     11  C   UNL d   1     -18.105  27.206  25.491  0.00  0.00     0.040 A 
ATOM     12  C   UNL d   1     -19.046  26.573  24.671  0.00  0.00     0.011 A 
ENDROOT
BRANCH   1  13
ATOM     13  C   UNL d   1     -20.946  27.065  26.321  0.00  0.00     0.294 C 
ATOM     14  O   UNL d   1     -21.465  28.164  26.327  0.00  0.00    -0.259 OA
BRANCH  13  15
ATOM     15  O   UNL d   1     -20.816  26.375  27.470  0.00  0.00    -0.313 OA
BRANCH  15  16
ATOM     16  C   UNL d   1     -20.270  27.090  28.610  0.00  0.00     0.217 C 
BRANCH  16  17
ATOM     17  C   UNL d   1     -19.690  26.103  29.591  0.00  0.00    -0.034 A 
ATOM     18  C   UNL d   1     -20.526  25.372  30.412  0.00  0.00     0.009 A 
ATOM     19  C   UNL d   1     -19.994  24.466  31.312  0.00  0.00     0.001 A 
ATOM     20  C   UNL d   1     -18.625  24.291  31.388  0.00  0.00     0.000 A 
ATOM     21  C   UNL d   1     -17.788  25.022  30.565  0.00  0.00     0.001 A 
ATOM     22  C   UNL d   1     -18.321  25.924  29.662  0.00  0.00     0.009 A 
ENDBRANCH  16  17
ENDBRANCH  15  16
ENDBRANCH  13  15
ENDBRANCH   1  13
BRANCH   3  23
ATOM     23  C   UNL d   1     -21.733  24.617  22.052  0.00  0.00    -0.007 A 
ATOM     24  C   UNL d   1     -22.758  23.814  22.553  0.00  0.00     0.015 A 
ATOM     25  C   UNL d   1     -23.617  23.176  21.683  0.00  0.00     0.024 A 
ATOM     26  C   UNL d   1     -23.466  23.331  20.316  0.00  0.00     0.034 A 
ATOM     27  C   UNL d   1     -22.450  24.127  19.814  0.00  0.00     0.024 A 
ATOM     28 CL   UNL d   1     -24.551  22.525  19.227  0.00  0.00    -0.084 Cl
ATOM     29  C   UNL d   1     -21.587  24.774  20.674  0.00  0.00     0.015 A 
ENDBRANCH   3  23
TORSDOF 5
ENDMDL
