MODEL 1
REMARK VINA RESULT:      -9.4      0.000      0.000
REMARK  6 active torsions:
REMARK  status: ('A' for Active; 'I' for Inactive)
REMARK    1  A    between atoms: C_7  and  N_8 
REMARK       I    between atoms: N_8  and  C_9 
REMARK    2  A    between atoms: C_9  and  C_11 
REMARK    3  A    between atoms: C_15  and  N_16 
REMARK    4  A    between atoms: C_27  and  O_28 
REMARK    5  A    between atoms: O_28  and  C_29 
REMARK    6  A    between atoms: C_29  and  C_31 
ROOT
ATOM      1  C   UNL d   1     -19.704  24.891  22.638  0.00  0.00     0.068 A 
ATOM      2  C   UNL d   1     -20.321  24.595  21.416  0.00  0.00     0.064 A 
ATOM      3  C   UNL d   1     -21.609  24.112  21.396  0.00  0.00     0.146 A 
ATOM      4  F   UNL d   1     -22.201  23.821  20.217  0.00  0.00    -0.204 F 
ATOM      5  C   UNL d   1     -22.303  23.916  22.590  0.00  0.00     0.104 A 
ATOM      6  C   UNL d   1     -21.700  24.207  23.806  0.00  0.00     0.073 A 
ATOM      7  C   UNL d   1     -20.405  24.693  23.837  0.00  0.00     0.087 A 
ENDROOT
BRANCH   1   8
ATOM      8  C   UNL d   1     -18.326  25.409  22.664  0.00  0.00     0.260 C 
ATOM      9  N   UNL d   1     -18.041  26.532  23.352  0.00  0.00    -0.307 N 
ATOM     10  H   UNL d   1     -18.742  27.000  23.829  0.00  0.00     0.170 HD
ATOM     11  O   UNL d   1     -17.445  24.821  22.065  0.00  0.00    -0.267 OA
BRANCH   9  12
ATOM     12  C   UNL d   1     -16.736  27.020  23.377  0.00  0.00     0.136 A 
ATOM     13  C   UNL d   1     -15.847  26.563  24.344  0.00  0.00    -0.016 A 
ATOM     14  C   UNL d   1     -16.287  25.544  25.364  0.00  0.00     0.052 C 
ATOM     15  C   UNL d   1     -14.553  27.053  24.354  0.00  0.00     0.012 A 
ATOM     16  C   UNL d   1     -14.194  27.995  23.399  0.00  0.00     0.020 A 
ATOM     17  C   UNL d   1     -15.130  28.407  22.471  0.00  0.00     0.119 A 
ATOM     18  N   UNL d   1     -16.355  27.919  22.483  0.00  0.00    -0.243 NA
ENDBRANCH   9  12
ENDBRANCH   1   8
BRANCH   7  19
ATOM     19  O   UNL d   1     -19.813  24.979  25.025  0.00  0.00    -0.345 OA
BRANCH  19  20
ATOM     20  C   UNL d   1     -19.998  26.300  25.540  0.00  0.00     0.129 C 
ATOM     21  C   UNL d   1     -21.494  26.607  25.633  0.00  0.00     0.040 C 
BRANCH  20  22
ATOM     22  C   UNL d   1     -19.370  26.397  26.932  0.00  0.00     0.015 C 
ATOM     23  C   UNL d   1     -18.651  27.741  27.074  0.00  0.00     0.007 C 
ATOM     24  C   UNL d   1     -18.023  27.838  28.466  0.00  0.00     0.000 C 
ATOM     25  C   UNL d   1     -19.119  27.729  29.529  0.00  0.00     0.000 C 
ATOM     26  C   UNL d   1     -19.836  26.385  29.386  0.00  0.00     0.000 C 
ATOM     27  C   UNL d   1     -20.465  26.289  27.994  0.00  0.00     0.007 C 
ENDBRANCH  20  22
ENDBRANCH  19  20
ENDBRANCH   7  19
BRANCH   5  28
ATOM     28  N   UNL d   1     -23.611  23.425  22.563  0.00  0.00    -0.178 N 
ATOM     29  C   UNL d   1     -24.664  23.915  23.251  0.00  0.00     0.351 A 
ATOM     30  N   UNL d   1     -25.737  23.177  22.922  0.00  0.00    -0.284 N 
ATOM     31  O   UNL d   1     -24.645  24.853  24.028  0.00  0.00    -0.244 OA
ATOM     32  C   UNL d   1     -25.333  22.192  22.044  0.00  0.00     0.131 A 
ATOM     33  C   UNL d   1     -27.121  23.364  23.371  0.00  0.00     0.135 C 
ATOM     34  N   UNL d   1     -24.073  22.336  21.809  0.00  0.00    -0.149 NA
ATOM     35  C   UNL d   1     -26.258  21.132  21.489  0.00  0.00     0.081 C 
ATOM     36  C   UNL d   1     -27.701  21.616  21.677  0.00  0.00     0.009 C 
ATOM     37  C   UNL d   1     -27.894  22.062  23.130  0.00  0.00     0.021 C 
ENDBRANCH   5  28
TORSDOF 6
ENDMDL
