MODEL 1
REMARK VINA RESULT:      -9.1      0.000      0.000
REMARK  6 active torsions:
REMARK  status: ('A' for Active; 'I' for Inactive)
REMARK    1  A    between atoms: C_2  and  N_3 
REMARK    2  A    between atoms: C_4  and  C_5 
REMARK    3  A    between atoms: C_5  and  O_6 
REMARK    4  A    between atoms: N_8  and  C_9 
REMARK    5  A    between atoms: C_12  and  C_13 
REMARK    6  A    between atoms: N_17  and  C_18 
ROOT
ATOM      1  C   UNL d   1     -28.618  22.222  22.152  0.00  0.00     0.103 A 
ATOM      2  C   UNL d   1     -27.927  23.131  22.934  0.00  0.00     0.048 A 
ATOM      3  C   UNL d   1     -26.551  23.272  22.765  0.00  0.00    -0.010 A 
ATOM      4  C   UNL d   1     -25.764  24.214  23.566  0.00  0.00    -0.027 A 
ATOM      5  C   UNL d   1     -24.441  24.312  23.357  0.00  0.00     0.109 A 
ATOM      6  N   UNL d   1     -23.791  23.561  22.417  0.00  0.00    -0.286 N 
ATOM      7  C   UNL d   1     -24.434  22.670  21.636  0.00  0.00     0.263 A 
ATOM      8  O   UNL d   1     -23.820  22.020  20.810  0.00  0.00    -0.267 OA
ATOM      9  C   UNL d   1     -25.881  22.493  21.791  0.00  0.00     0.046 A 
ATOM     10  C   UNL d   1     -26.601  21.587  21.011  0.00  0.00     0.062 A 
ATOM     11  C   UNL d   1     -27.949  21.458  21.193  0.00  0.00     0.146 A 
ATOM     12  F   UNL d   1     -28.643  20.579  20.436  0.00  0.00    -0.204 F 
ENDROOT
BRANCH   1  13
ATOM     13  N   UNL d   1     -29.998  22.073  22.319  0.00  0.00    -0.178 N 
ATOM     14  N   UNL d   1     -30.973  22.181  21.318  0.00  0.00    -0.147 NA
ATOM     15  C   UNL d   1     -32.131  21.979  21.860  0.00  0.00     0.154 A 
ATOM     16  N   UNL d   1     -31.957  21.738  23.201  0.00  0.00    -0.283 N 
ATOM     17  C   UNL d   1     -30.639  21.804  23.476  0.00  0.00     0.351 A 
ATOM     18  O   UNL d   1     -30.122  21.648  24.567  0.00  0.00    -0.244 OA
BRANCH  15  19
ATOM     19  C   UNL d   1     -33.453  22.001  21.138  0.00  0.00     0.244 C 
BRANCH  19  20
ATOM     20  O   UNL d   1     -33.829  20.668  20.791  0.00  0.00    -0.393 OA
ATOM     21  H   UNL d   1     -34.505  20.615  20.101  0.00  0.00     0.209 HD
ENDBRANCH  19  20
ENDBRANCH  15  19
BRANCH  16  22
ATOM     22  C   UNL d   1     -33.022  21.463  24.168  0.00  0.00     0.131 C 
ATOM     23  C   UNL d   1     -33.219  19.951  24.293  0.00  0.00     0.027 C 
ENDBRANCH  16  22
ENDBRANCH   1  13
BRANCH   4  24
ATOM     24  C   UNL d   1     -26.433  25.065  24.614  0.00  0.00     0.013 C 
ATOM     25  C   UNL d   1     -26.820  24.191  25.809  0.00  0.00     0.015 C 
ATOM     26  C   UNL d   1     -25.467  26.160  25.074  0.00  0.00     0.015 C 
ENDBRANCH   4  24
BRANCH   6  27
ATOM     27  C   UNL d   1     -22.410  23.723  22.260  0.00  0.00     0.065 A 
ATOM     28  C   UNL d   1     -21.900  24.442  21.181  0.00  0.00    -0.032 A 
ATOM     29  C   UNL d   1     -20.526  24.580  21.072  0.00  0.00     0.028 A 
ATOM     30  C   UNL d   1     -22.821  25.059  20.160  0.00  0.00     0.050 C 
ATOM     31  C   UNL d   1     -19.711  23.994  22.023  0.00  0.00     0.117 A 
ATOM     32  N   UNL d   1     -20.225  23.315  23.030  0.00  0.00    -0.271 NA
ATOM     33  C   UNL d   1     -21.526  23.165  23.175  0.00  0.00     0.146 A 
ENDBRANCH   6  27
TORSDOF 6
ENDMDL
