MODEL 1
REMARK VINA RESULT:     -12.7      0.000      0.000
REMARK  4 active torsions:
REMARK  status: ('A' for Active; 'I' for Inactive)
REMARK    1  A    between atoms: C_2  and  O_3 
REMARK    2  A    between atoms: C_2  and  C_4 
REMARK    3  A    between atoms: C_11  and  C_12 
REMARK    4  A    between atoms: C_17  and  C_18 
ROOT
ATOM      1  C   UNL d   1     -27.190  22.466  23.192  0.00  0.00     0.093 A 
ATOM      2  C   UNL d   1     -26.543  21.756  22.175  0.00  0.00     0.173 A 
ATOM      3  F   UNL d   1     -27.170  20.727  21.564  0.00  0.00    -0.202 F 
ATOM      4  C   UNL d   1     -25.265  22.112  21.791  0.00  0.00     0.170 A 
ATOM      5  F   UNL d   1     -24.641  21.430  20.805  0.00  0.00    -0.202 F 
ATOM      6  C   UNL d   1     -24.614  23.172  22.425  0.00  0.00     0.058 A 
ATOM      7  C   UNL d   1     -25.257  23.877  23.445  0.00  0.00     0.170 A 
ATOM      8  F   UNL d   1     -24.626  24.903  24.057  0.00  0.00    -0.202 F 
ATOM      9  C   UNL d   1     -26.536  23.528  23.827  0.00  0.00     0.173 A 
ATOM     10  F   UNL d   1     -27.158  24.211  24.813  0.00  0.00    -0.202 F 
ENDROOT
BRANCH   1  11
ATOM     11  C   UNL d   1     -28.557  22.090  23.600  0.00  0.00     0.145 A 
ATOM     12  N   UNL d   1     -28.903  21.579  24.822  0.00  0.00    -0.338 N 
ATOM     13  C   UNL d   1     -30.268  21.363  24.799  0.00  0.00     0.064 A 
ATOM     14  H   UNL d   1     -28.303  21.401  25.562  0.00  0.00     0.167 HD
ATOM     15  C   UNL d   1     -31.178  20.871  25.721  0.00  0.00     0.032 A 
ATOM     16  C   UNL d   1     -30.707  21.767  23.525  0.00  0.00     0.102 A 
ATOM     17  C   UNL d   1     -32.518  20.773  25.394  0.00  0.00     0.003 A 
ATOM     18  C   UNL d   1     -32.970  21.163  24.148  0.00  0.00     0.021 A 
ATOM     19  C   UNL d   1     -32.078  21.663  23.201  0.00  0.00     0.068 A 
ATOM     20  N   UNL d   1     -29.629  22.197  22.847  0.00  0.00    -0.227 NA
BRANCH  19  21
ATOM     21  C   UNL d   1     -32.561  22.078  21.873  0.00  0.00     0.178 C 
ATOM     22  O   UNL d   1     -33.731  22.365  21.714  0.00  0.00    -0.646 OA
BRANCH  21  23
ATOM     23  O   UNL d   1     -31.704  22.142  20.835  0.00  0.00    -0.773 OA
ATOM     24  H   UNL d   1     -32.071  22.395  19.977  0.00  0.00     0.167 HD
ENDBRANCH  21  23
ENDBRANCH  19  21
ENDBRANCH   1  11
BRANCH   6  25
ATOM     25  C   UNL d   1     -23.240  23.549  22.016  0.00  0.00    -0.019 A 
ATOM     26  C   UNL d   1     -22.162  23.284  22.860  0.00  0.00     0.015 A 
ATOM     27  C   UNL d   1     -20.886  23.636  22.476  0.00  0.00     0.043 A 
ATOM     28  C   UNL d   1     -20.673  24.252  21.253  0.00  0.00     0.116 A 
ATOM     29  C   UNL d   1     -21.741  24.518  20.411  0.00  0.00     0.043 A 
ATOM     30  F   UNL d   1     -19.420  24.596  20.881  0.00  0.00    -0.206 F 
ATOM     31  C   UNL d   1     -23.021  24.164  20.785  0.00  0.00     0.015 A 
ENDBRANCH   6  25
TORSDOF 4
ENDMDL
