MODEL 1
REMARK VINA RESULT:     -10.0      0.000      0.000
REMARK  5 active torsions:
REMARK  status: ('A' for Active; 'I' for Inactive)
REMARK    1  A    between atoms: C_2  and  C_3 
REMARK    2  A    between atoms: C_8  and  C_9 
REMARK    3  A    between atoms: N_10  and  N_11 
REMARK    4  A    between atoms: N_11  and  C_12 
REMARK    5  A    between atoms: C_14  and  C_15 
ROOT
ATOM      1  N   UNL d   1     -28.394  22.605  24.184  0.00  0.00    -0.255 N 
ATOM      2  H   UNL d   1     -28.493  22.931  25.092  0.00  0.00     0.191 HD
ENDROOT
BRANCH   1   3
ATOM      3  N   UNL d   1     -29.489  22.035  23.521  0.00  0.00    -0.184 NA
ATOM      4  C   UNL d   1     -30.699  22.386  23.845  0.00  0.00     0.151 C 
BRANCH   4   5
ATOM      5  C   UNL d   1     -31.848  21.788  23.149  0.00  0.00    -0.004 A 
ATOM      6  C   UNL d   1     -32.671  20.848  23.811  0.00  0.00     0.013 A 
ATOM      7  C   UNL d   1     -33.762  20.294  23.135  0.00  0.00     0.015 A 
ATOM      8  C   UNL d   1     -34.021  20.657  21.831  0.00  0.00     0.001 A 
ATOM      9  C   UNL d   1     -33.210  21.575  21.181  0.00  0.00     0.001 A 
ATOM     10  C   UNL d   1     -32.131  22.139  21.828  0.00  0.00     0.014 A 
BRANCH   6  11
ATOM     11  C   UNL d   1     -32.385  20.461  25.196  0.00  0.00     0.271 C 
ATOM     12  O   UNL d   1     -31.896  19.377  25.435  0.00  0.00    -0.301 OA
ENDBRANCH   6  11
ENDBRANCH   4   5
ENDBRANCH   1   3
BRANCH   1  13
ATOM     13  C   UNL d   1     -27.170  22.704  23.542  0.00  0.00     0.187 A 
ATOM     14  S   UNL d   1     -26.630  21.676  22.218  0.00  0.00    -0.060 SA
ATOM     15  C   UNL d   1     -25.106  22.556  22.157  0.00  0.00     0.085 A 
ATOM     16  C   UNL d   1     -25.132  23.512  23.103  0.00  0.00     0.076 A 
ATOM     17  N   UNL d   1     -26.243  23.566  23.824  0.00  0.00    -0.222 NA
BRANCH  16  18
ATOM     18  C   UNL d   1     -23.998  24.441  23.324  0.00  0.00    -0.007 A 
ATOM     19  C   UNL d   1     -24.229  25.808  23.467  0.00  0.00     0.014 A 
ATOM     20  C   UNL d   1     -23.170  26.667  23.674  0.00  0.00     0.001 A 
ATOM     21  C   UNL d   1     -21.879  26.174  23.738  0.00  0.00     0.000 A 
ATOM     22  C   UNL d   1     -21.643  24.818  23.598  0.00  0.00     0.001 A 
ATOM     23  C   UNL d   1     -22.696  23.950  23.396  0.00  0.00     0.014 A 
ENDBRANCH  16  18
ENDBRANCH   1  13
TORSDOF 5
ENDMDL
