MODEL 1
REMARK VINA RESULT:     -11.5      0.000      0.000
REMARK  5 active torsions:
REMARK  status: ('A' for Active; 'I' for Inactive)
REMARK    1  A    between atoms: C_5  and  C_6 
REMARK    2  A    between atoms: C_6  and  O_8 
REMARK    3  A    between atoms: C_10  and  C_11 
REMARK    4  A    between atoms: C_14  and  C_15 
REMARK    5  A    between atoms: C_19  and  O_20 
ROOT
ATOM      1  C   UNL d   1     -34.333  21.652  21.564  0.00  0.00     0.091 C 
ATOM      2  C   UNL d   1     -32.937  21.782  22.118  0.00  0.00     0.101 A 
ATOM      3  N   UNL d   1     -32.596  21.535  23.352  0.00  0.00    -0.233 NA
ATOM      4  C   UNL d   1     -31.278  21.756  23.514  0.00  0.00     0.102 A 
ATOM      5  C   UNL d   1     -30.406  21.653  24.621  0.00  0.00     0.069 A 
ATOM      6  C   UNL d   1     -29.059  21.960  24.465  0.00  0.00     0.033 A 
ATOM      7  C   UNL d   1     -28.571  22.368  23.224  0.00  0.00    -0.023 A 
ATOM      8  C   UNL d   1     -29.427  22.471  22.130  0.00  0.00     0.044 A 
ATOM      9  C   UNL d   1     -30.771  22.169  22.270  0.00  0.00     0.064 A 
ATOM     10  N   UNL d   1     -31.849  22.171  21.404  0.00  0.00    -0.343 N 
ATOM     11  H   UNL d   1     -31.832  22.410  20.464  0.00  0.00     0.167 HD
ENDROOT
BRANCH   7  12
ATOM     12  C   UNL d   1     -27.133  22.693  23.068  0.00  0.00    -0.026 A 
ATOM     13  C   UNL d   1     -26.560  23.707  23.835  0.00  0.00     0.013 A 
ATOM     14  C   UNL d   1     -25.223  24.009  23.689  0.00  0.00     0.013 A 
ATOM     15  C   UNL d   1     -24.444  23.300  22.776  0.00  0.00    -0.026 A 
ATOM     16  C   UNL d   1     -25.017  22.287  22.009  0.00  0.00     0.013 A 
ATOM     17  C   UNL d   1     -26.351  21.981  22.158  0.00  0.00     0.013 A 
BRANCH  15  18
ATOM     18  C   UNL d   1     -23.005  23.625  22.620  0.00  0.00    -0.023 A 
ATOM     19  C   UNL d   1     -22.544  24.203  21.441  0.00  0.00     0.048 A 
ATOM     20  C   UNL d   1     -21.200  24.511  21.303  0.00  0.00     0.066 A 
ATOM     21  C   UNL d   1     -20.314  24.230  22.334  0.00  0.00     0.036 A 
ATOM     22  C   UNL d   1     -20.771  23.649  23.504  0.00  0.00     0.004 A 
ATOM     23  C   UNL d   1     -22.109  23.346  23.651  0.00  0.00     0.012 A 
BRANCH  20  24
ATOM     24  O   UNL d   1     -20.747  25.081  20.155  0.00  0.00    -0.361 OA
ATOM     25  H   UNL d   1     -21.176  25.920  19.937  0.00  0.00     0.217 HD
ENDBRANCH  20  24
ENDBRANCH  15  18
ENDBRANCH   7  12
BRANCH   5  26
ATOM     26  C   UNL d   1     -30.920  21.223  25.932  0.00  0.00     0.178 C 
ATOM     27  O   UNL d   1     -30.251  21.392  26.932  0.00  0.00    -0.646 OA
BRANCH  26  28
ATOM     28  O   UNL d   1     -32.134  20.642  26.023  0.00  0.00    -0.773 OA
ATOM     29  H   UNL d   1     -32.767  21.041  26.635  0.00  0.00     0.167 HD
ENDBRANCH  26  28
ENDBRANCH   5  26
TORSDOF 5
ENDMDL
