MODEL 1
REMARK VINA RESULT:      -9.9      0.000      0.000
REMARK  4 active torsions:
REMARK  status: ('A' for Active; 'I' for Inactive)
REMARK    1  A    between atoms: C_3  and  C_4 
REMARK    2  A    between atoms: C_7  and  C_8 
REMARK    3  A    between atoms: C_25  and  C_26 
REMARK       I    between atoms: C_26  and  N_28 
REMARK    4  A    between atoms: N_28  and  O_30 
ROOT
ATOM      1  C   UNL d   1     -28.245  21.756  25.476  0.00  0.00     0.052 C 
ATOM      2  C   UNL d   1     -29.169  21.863  24.291  0.00  0.00    -0.016 A 
ATOM      3  C   UNL d   1     -28.677  22.277  23.043  0.00  0.00     0.074 A 
ATOM      4  N   UNL d   1     -29.447  22.378  21.980  0.00  0.00    -0.247 NA
ATOM      5  C   UNL d   1     -30.751  22.100  22.017  0.00  0.00     0.069 A 
ATOM      6  C   UNL d   1     -31.549  22.217  20.863  0.00  0.00     0.035 A 
ATOM      7  C   UNL d   1     -32.877  21.927  20.929  0.00  0.00     0.044 A 
ATOM      8  C   UNL d   1     -33.465  21.513  22.126  0.00  0.00     0.117 A 
ATOM      9  F   UNL d   1     -34.787  21.232  22.158  0.00  0.00    -0.206 F 
ATOM     10  C   UNL d   1     -32.721  21.388  23.263  0.00  0.00     0.057 A 
ATOM     11  C   UNL d   1     -31.353  21.679  23.229  0.00  0.00     0.012 A 
ATOM     12  C   UNL d   1     -30.516  21.559  24.424  0.00  0.00     0.055 A 
ENDROOT
BRANCH   3  13
ATOM     13  C   UNL d   1     -27.236  22.604  22.916  0.00  0.00    -0.007 A 
ATOM     14  C   UNL d   1     -26.692  23.654  23.657  0.00  0.00     0.014 A 
ATOM     15  C   UNL d   1     -25.353  23.955  23.542  0.00  0.00     0.013 A 
ATOM     16  C   UNL d   1     -24.544  23.217  22.677  0.00  0.00    -0.023 A 
ATOM     17  C   UNL d   1     -25.088  22.169  21.937  0.00  0.00     0.013 A 
ATOM     18  C   UNL d   1     -26.425  21.863  22.055  0.00  0.00     0.014 A 
BRANCH  16  19
ATOM     19  C   UNL d   1     -23.103  23.545  22.550  0.00  0.00     0.013 A 
ATOM     20  C   UNL d   1     -22.616  24.117  21.374  0.00  0.00     0.127 A 
ATOM     21  C   UNL d   1     -21.271  24.415  21.260  0.00  0.00     0.043 A 
ATOM     22  F   UNL d   1     -23.455  24.375  20.347  0.00  0.00    -0.205 F 
ATOM     23  C   UNL d   1     -20.412  24.156  22.312  0.00  0.00     0.003 A 
ATOM     24  C   UNL d   1     -20.891  23.590  23.481  0.00  0.00     0.001 A 
ATOM     25  C   UNL d   1     -22.230  23.283  23.605  0.00  0.00     0.015 A 
ENDBRANCH  16  19
ENDBRANCH   3  13
BRANCH  12  26
ATOM     26  C   UNL d   1     -31.082  21.125  25.719  0.00  0.00     0.278 C 
ATOM     27  O   UNL d   1     -31.429  21.953  26.538  0.00  0.00    -0.265 OA
ATOM     28  N   UNL d   1     -31.213  19.812  25.992  0.00  0.00    -0.229 N 
ATOM     29  C   UNL d   1     -31.773  19.382  27.276  0.00  0.00     0.189 C 
BRANCH  28  30
ATOM     30  O   UNL d   1     -30.808  18.847  25.038  0.00  0.00    -0.285 OA
ATOM     31  H   UNL d   1     -31.460  18.684  24.342  0.00  0.00     0.245 HD
ENDBRANCH  28  30
ENDBRANCH  12  26
TORSDOF 4
ENDMDL
