MODEL 1
REMARK VINA RESULT:     -11.3      0.000      0.000
REMARK  6 active torsions:
REMARK  status: ('A' for Active; 'I' for Inactive)
REMARK    1  A    between atoms: C_2  and  O_3 
REMARK    2  A    between atoms: C_2  and  C_4 
REMARK    3  A    between atoms: C_6  and  C_7 
REMARK    4  A    between atoms: C_12  and  N_13 
REMARK    5  A    between atoms: N_13  and  C_14 
REMARK    6  A    between atoms: C_17  and  C_18 
ROOT
ATOM      1  N   UNL d   1     -28.122  22.467  24.289  0.00  0.00    -0.353 N 
ATOM      2  H   UNL d   1     -28.175  22.316  25.246  0.00  0.00     0.166 HD
ENDROOT
BRANCH   1   3
ATOM      3  C   UNL d   1     -29.258  22.336  23.502  0.00  0.00     0.049 A 
ATOM      4  C   UNL d   1     -30.459  21.874  24.065  0.00  0.00     0.064 A 
ATOM      5  C   UNL d   1     -31.596  21.752  23.261  0.00  0.00     0.028 A 
ATOM      6  C   UNL d   1     -31.529  22.074  21.923  0.00  0.00    -0.053 A 
ATOM      7  C   UNL d   1     -30.340  22.526  21.370  0.00  0.00     0.010 A 
ATOM      8  C   UNL d   1     -29.211  22.657  22.150  0.00  0.00     0.031 A 
BRANCH   4   9
ATOM      9  C   UNL d   1     -30.522  21.524  25.494  0.00  0.00     0.178 C 
ATOM     10  O   UNL d   1     -31.408  21.978  26.192  0.00  0.00    -0.646 OA
BRANCH   9  11
ATOM     11  O   UNL d   1     -29.598  20.701  26.028  0.00  0.00    -0.773 OA
ATOM     12  H   UNL d   1     -29.784  20.346  26.908  0.00  0.00     0.167 HD
ENDBRANCH   9  11
ENDBRANCH   4   9
BRANCH   6  13
ATOM     13  C   UNL d   1     -32.754  21.937  21.057  0.00  0.00     0.018 A 
ATOM     14  C   UNL d   1     -33.695  20.764  21.345  0.00  0.00     0.010 A 
ATOM     15  C   UNL d   1     -34.114  22.190  21.711  0.00  0.00     0.010 A 
ENDBRANCH   6  13
ENDBRANCH   1   3
BRANCH   1  16
ATOM     16  C   UNL d   1     -26.902  22.814  23.703  0.00  0.00     0.068 A 
ATOM     17  C   UNL d   1     -26.235  23.978  24.079  0.00  0.00     0.150 A 
ATOM     18  N   UNL d   1     -25.080  24.270  23.510  0.00  0.00    -0.238 NA
ATOM     19  C   UNL d   1     -24.560  23.477  22.582  0.00  0.00     0.162 A 
ATOM     20  N   UNL d   1     -25.167  22.361  22.198  0.00  0.00    -0.238 NA
ATOM     21  C   UNL d   1     -26.322  22.002  22.730  0.00  0.00     0.150 A 
BRANCH  19  22
ATOM     22  C   UNL d   1     -23.266  23.844  21.961  0.00  0.00     0.050 A 
ATOM     23  C   UNL d   1     -22.072  23.635  22.655  0.00  0.00     0.130 A 
ATOM     24  C   UNL d   1     -20.867  23.981  22.069  0.00  0.00     0.043 A 
ATOM     25  F   UNL d   1     -22.093  23.102  23.895  0.00  0.00    -0.205 F 
ATOM     26  C   UNL d   1     -20.846  24.530  20.801  0.00  0.00     0.003 A 
ATOM     27  C   UNL d   1     -22.026  24.739  20.110  0.00  0.00     0.001 A 
ATOM     28  C   UNL d   1     -23.234  24.399  20.683  0.00  0.00     0.018 A 
ENDBRANCH  19  22
ENDBRANCH   1  16
TORSDOF 6
ENDMDL
