MODEL 1
REMARK VINA RESULT:      -9.4      0.000      0.000
REMARK  4 active torsions:
REMARK  status: ('A' for Active; 'I' for Inactive)
REMARK       I    between atoms: C_2  and  N_3 
REMARK       I    between atoms: C_2  and  N_12 
REMARK    1  A    between atoms: N_3  and  C_4 
REMARK    2  A    between atoms: N_12  and  C_13 
REMARK    3  A    between atoms: C_18  and  C_19 
REMARK    4  A    between atoms: C_19  and  O_21 
ROOT
ATOM      1  O   UNL d   1     -25.300  23.512  23.112  0.00  0.00    -0.247 OA
ATOM      2  C   UNL d   1     -24.958  22.598  22.386  0.00  0.00     0.325 C 
ATOM      3  N   UNL d   1     -25.856  21.669  22.004  0.00  0.00    -0.309 N 
ATOM      4  N   UNL d   1     -23.681  22.516  21.961  0.00  0.00    -0.308 N 
ATOM      5  H   UNL d   1     -25.570  20.905  21.479  0.00  0.00     0.170 HD
ATOM      6  H   UNL d   1     -23.424  21.827  21.330  0.00  0.00     0.170 HD
ENDROOT
BRANCH   3   7
ATOM      7  C   UNL d   1     -27.201  21.805  22.365  0.00  0.00     0.039 A 
ATOM      8  C   UNL d   1     -28.166  22.011  21.388  0.00  0.00     0.053 A 
ATOM      9  C   UNL d   1     -29.494  22.147  21.748  0.00  0.00     0.037 A 
ATOM     10  C   UNL d   1     -29.862  22.076  23.080  0.00  0.00     0.048 A 
ATOM     11 CL   UNL d   1     -30.701  22.404  20.527  0.00  0.00    -0.084 Cl
ATOM     12  C   UNL d   1     -28.902  21.870  24.055  0.00  0.00     0.037 A 
ATOM     13  C   UNL d   1     -27.573  21.736  23.702  0.00  0.00     0.053 A 
ATOM     14 CL   UNL d   1     -29.368  21.782  25.726  0.00  0.00    -0.084 Cl
ENDBRANCH   3   7
BRANCH   4  15
ATOM     15  C   UNL d   1     -22.732  23.421  22.430  0.00  0.00     0.053 A 
ATOM     16  C   UNL d   1     -22.210  24.402  21.574  0.00  0.00     0.064 A 
ATOM     17  C   UNL d   1     -21.261  25.307  22.060  0.00  0.00     0.020 A 
ATOM     18  C   UNL d   1     -20.837  25.224  23.367  0.00  0.00     0.001 A 
ATOM     19  C   UNL d   1     -21.351  24.249  24.209  0.00  0.00     0.002 A 
ATOM     20  C   UNL d   1     -22.293  23.352  23.745  0.00  0.00     0.030 A 
BRANCH  16  21
ATOM     21  C   UNL d   1     -22.663  24.483  20.174  0.00  0.00     0.178 C 
ATOM     22  O   UNL d   1     -22.961  23.470  19.573  0.00  0.00    -0.646 OA
BRANCH  21  23
ATOM     23  O   UNL d   1     -22.747  25.680  19.561  0.00  0.00    -0.773 OA
ATOM     24  H   UNL d   1     -23.403  25.766  18.856  0.00  0.00     0.167 HD
ENDBRANCH  21  23
ENDBRANCH  16  21
ENDBRANCH   4  15
TORSDOF 4
ENDMDL
