MODEL 1
REMARK VINA RESULT:      -8.4      0.000      0.000
REMARK  7 active torsions:
REMARK  status: ('A' for Active; 'I' for Inactive)
REMARK    1  A    between atoms: C_2  and  N_3 
REMARK    2  A    between atoms: C_4  and  C_5 
REMARK    3  A    between atoms: C_5  and  O_6 
REMARK    4  A    between atoms: N_8  and  C_9 
REMARK    5  A    between atoms: C_12  and  C_13 
REMARK    6  A    between atoms: C_13  and  C_15 
REMARK    7  A    between atoms: N_20  and  C_21 
ROOT
ATOM      1  C   UNL d   1     -21.877  24.513  23.085  0.00  0.00     0.103 A 
ATOM      2  C   UNL d   1     -21.506  25.220  24.215  0.00  0.00     0.048 A 
ATOM      3  C   UNL d   1     -20.209  25.723  24.313  0.00  0.00    -0.010 A 
ATOM      4  C   UNL d   1     -19.755  26.472  25.486  0.00  0.00    -0.018 A 
ATOM      5  C   UNL d   1     -18.497  26.939  25.523  0.00  0.00     0.109 A 
ATOM      6  N   UNL d   1     -17.612  26.739  24.500  0.00  0.00    -0.288 N 
ATOM      7  C   UNL d   1     -17.942  26.060  23.383  0.00  0.00     0.263 A 
ATOM      8  O   UNL d   1     -17.125  25.904  22.494  0.00  0.00    -0.267 OA
ATOM      9  C   UNL d   1     -19.295  25.514  23.251  0.00  0.00     0.046 A 
ATOM     10  C   UNL d   1     -19.696  24.802  22.120  0.00  0.00     0.062 A 
ATOM     11  C   UNL d   1     -20.969  24.311  22.043  0.00  0.00     0.146 A 
ATOM     12  F   UNL d   1     -21.353  23.622  20.946  0.00  0.00    -0.204 F 
ENDROOT
BRANCH   1  13
ATOM     13  N   UNL d   1     -23.174  24.001  22.982  0.00  0.00    -0.178 N 
ATOM     14  N   UNL d   1     -23.546  22.800  22.365  0.00  0.00    -0.147 NA
ATOM     15  C   UNL d   1     -24.830  22.671  22.473  0.00  0.00     0.154 A 
ATOM     16  N   UNL d   1     -25.329  23.758  23.150  0.00  0.00    -0.283 N 
ATOM     17  C   UNL d   1     -24.301  24.576  23.454  0.00  0.00     0.351 A 
ATOM     18  O   UNL d   1     -24.374  25.637  24.048  0.00  0.00    -0.244 OA
BRANCH  15  19
ATOM     19  C   UNL d   1     -25.645  21.519  21.945  0.00  0.00     0.244 C 
BRANCH  19  20
ATOM     20  O   UNL d   1     -24.774  20.553  21.353  0.00  0.00    -0.393 OA
ATOM     21  H   UNL d   1     -24.449  19.884  21.973  0.00  0.00     0.209 HD
ENDBRANCH  19  20
ENDBRANCH  15  19
BRANCH  16  22
ATOM     22  C   UNL d   1     -26.737  23.992  23.479  0.00  0.00     0.131 C 
ATOM     23  C   UNL d   1     -27.049  23.381  24.846  0.00  0.00     0.027 C 
ENDBRANCH  16  22
ENDBRANCH   1  13
BRANCH   4  24
ATOM     24  C   UNL d   1     -20.692  26.719  26.640  0.00  0.00     0.124 C 
ATOM     25  C   UNL d   1     -19.934  26.543  27.958  0.00  0.00     0.024 C 
BRANCH  24  26
ATOM     26  C   UNL d   1     -21.244  28.143  26.555  0.00  0.00     0.395 C 
ATOM     27  F   UNL d   1     -22.163  28.349  27.588  0.00  0.00    -0.170 F 
ATOM     28  F   UNL d   1     -20.192  29.059  26.677  0.00  0.00    -0.170 F 
ATOM     29  F   UNL d   1     -21.879  28.323  25.321  0.00  0.00    -0.170 F 
ENDBRANCH  24  26
ENDBRANCH   4  24
BRANCH   6  30
ATOM     30  C   UNL d   1     -16.317  27.258  24.616  0.00  0.00     0.048 A 
ATOM     31  C   UNL d   1     -15.318  26.506  25.221  0.00  0.00    -0.035 A 
ATOM     32  C   UNL d   1     -14.040  27.020  25.334  0.00  0.00     0.009 A 
ATOM     33  C   UNL d   1     -15.626  25.129  25.752  0.00  0.00     0.050 C 
ATOM     34  C   UNL d   1     -13.756  28.282  24.846  0.00  0.00     0.001 A 
ATOM     35  C   UNL d   1     -14.749  29.034  24.244  0.00  0.00     0.002 A 
ATOM     36  C   UNL d   1     -16.026  28.523  24.123  0.00  0.00     0.030 A 
ENDBRANCH   6  30
TORSDOF 7
ENDMDL
