MODEL 1
REMARK VINA RESULT:      -9.3      0.000      0.000
REMARK  10 active torsions:
REMARK  status: ('A' for Active; 'I' for Inactive)
REMARK    1  A    between atoms: C_2  and  N_3 
REMARK    2  A    between atoms: C_4  and  C_5 
REMARK    3  A    between atoms: C_5  and  O_6 
REMARK    4  A    between atoms: N_8  and  C_9 
REMARK    5  A    between atoms: C_11  and  O_12 
REMARK    6  A    between atoms: O_12  and  C_13 
REMARK    7  A    between atoms: C_13  and  C_15 
REMARK    8  A    between atoms: C_20  and  O_21 
REMARK    9  A    between atoms: O_21  and  C_22 
REMARK   10  A    between atoms: C_27  and  N_28 
ROOT
ATOM      1  C   UNL d   1     -24.338  23.562  22.782  0.00  0.00     0.067 A 
ATOM      2  C   UNL d   1     -25.229  23.902  23.803  0.00  0.00     0.069 A 
ATOM      3  C   UNL d   1     -26.519  23.452  23.789  0.00  0.00     0.087 A 
ATOM      4  C   UNL d   1     -26.959  22.633  22.732  0.00  0.00     0.061 A 
ATOM      5  C   UNL d   1     -28.278  22.143  22.670  0.00  0.00     0.183 A 
ATOM      6  N   UNL d   1     -28.647  21.379  21.660  0.00  0.00    -0.236 NA
ATOM      7  C   UNL d   1     -27.819  21.042  20.679  0.00  0.00     0.120 A 
ATOM      8  C   UNL d   1     -26.527  21.465  20.648  0.00  0.00     0.032 A 
ATOM      9  C   UNL d   1     -26.057  22.286  21.694  0.00  0.00    -0.015 A 
ATOM     10  C   UNL d   1     -24.741  22.760  21.732  0.00  0.00     0.044 A 
ENDROOT
BRANCH   5  11
ATOM     11  O   UNL d   1     -29.166  22.454  23.645  0.00  0.00    -0.286 OA
BRANCH  11  12
ATOM     12  C   UNL d   1     -30.454  22.047  23.490  0.00  0.00     0.140 A 
ATOM     13  C   UNL d   1     -31.098  21.376  24.518  0.00  0.00     0.092 A 
ATOM     14  C   UNL d   1     -32.413  20.961  24.357  0.00  0.00     0.035 A 
ATOM     15 CL   UNL d   1     -30.261  21.054  26.005  0.00  0.00    -0.079 Cl
ATOM     16  C   UNL d   1     -33.081  21.220  23.167  0.00  0.00     0.028 A 
ATOM     17  C   UNL d   1     -32.436  21.890  22.143  0.00  0.00     0.047 A 
ATOM     18  C   UNL d   1     -31.128  22.308  22.303  0.00  0.00     0.152 A 
ATOM     19  F   UNL d   1     -30.502  22.966  21.302  0.00  0.00    -0.203 F 
BRANCH  14  20
ATOM     20  N   UNL d   1     -33.065  20.284  25.392  0.00  0.00    -0.290 NA
ATOM     21  C   UNL d   1     -34.497  20.132  25.102  0.00  0.00     0.116 C 
ATOM     22  C   UNL d   1     -32.438  18.980  25.645  0.00  0.00     0.116 C 
ENDBRANCH  14  20
ENDBRANCH  11  12
ENDBRANCH   5  11
BRANCH   3  23
ATOM     23  O   UNL d   1     -27.371  23.792  24.789  0.00  0.00    -0.336 OA
BRANCH  23  24
ATOM     24  C   UNL d   1     -26.858  23.749  26.122  0.00  0.00     0.232 C 
ATOM     25  C   UNL d   1     -27.438  24.912  26.929  0.00  0.00     0.049 C 
BRANCH  24  26
ATOM     26  C   UNL d   1     -27.253  22.426  26.779  0.00  0.00     0.413 C 
ATOM     27  F   UNL d   1     -26.127  21.847  27.375  0.00  0.00    -0.168 F 
ATOM     28  F   UNL d   1     -28.227  22.661  27.755  0.00  0.00    -0.168 F 
ATOM     29  F   UNL d   1     -27.764  21.558  25.809  0.00  0.00    -0.168 F 
ENDBRANCH  24  26
ENDBRANCH  23  24
ENDBRANCH   3  23
BRANCH   1  30
ATOM     30  N   UNL d   1     -23.023  24.038  22.823  0.00  0.00    -0.181 N 
ATOM     31  N   UNL d   1     -21.913  23.465  22.189  0.00  0.00    -0.147 NA
ATOM     32  C   UNL d   1     -20.875  24.191  22.462  0.00  0.00     0.154 A 
ATOM     33  N   UNL d   1     -21.263  25.235  23.265  0.00  0.00    -0.283 N 
ATOM     34  C   UNL d   1     -22.591  25.135  23.478  0.00  0.00     0.351 A 
ATOM     35  O   UNL d   1     -23.273  25.896  24.140  0.00  0.00    -0.244 OA
BRANCH  32  36
ATOM     36  C   UNL d   1     -19.472  23.931  21.978  0.00  0.00     0.244 C 
BRANCH  36  37
ATOM     37  O   UNL d   1     -19.381  24.250  20.588  0.00  0.00    -0.393 OA
ATOM     38  H   UNL d   1     -19.170  25.177  20.411  0.00  0.00     0.209 HD
ENDBRANCH  36  37
ENDBRANCH  32  36
BRANCH  33  39
ATOM     39  C   UNL d   1     -20.386  26.282  23.794  0.00  0.00     0.131 C 
ATOM     40  C   UNL d   1     -19.889  25.877  25.184  0.00  0.00     0.027 C 
ENDBRANCH  33  39
ENDBRANCH   1  30
TORSDOF 10
ENDMDL
