MODEL 1
REMARK VINA RESULT:      -9.0      0.000      0.000
REMARK  6 active torsions:
REMARK  status: ('A' for Active; 'I' for Inactive)
REMARK    1  A    between atoms: C_2  and  N_3 
REMARK    2  A    between atoms: C_4  and  C_5 
REMARK    3  A    between atoms: C_5  and  O_6 
REMARK    4  A    between atoms: N_8  and  C_9 
REMARK    5  A    between atoms: C_12  and  C_13 
REMARK    6  A    between atoms: N_17  and  C_18 
ROOT
ATOM      1  C   UNL d   1     -28.690  22.209  22.147  0.00  0.00     0.103 A 
ATOM      2  C   UNL d   1     -28.007  23.100  22.958  0.00  0.00     0.048 A 
ATOM      3  C   UNL d   1     -26.631  23.247  22.803  0.00  0.00    -0.010 A 
ATOM      4  C   UNL d   1     -25.854  24.173  23.632  0.00  0.00    -0.027 A 
ATOM      5  C   UNL d   1     -24.529  24.276  23.440  0.00  0.00     0.109 A 
ATOM      6  N   UNL d   1     -23.868  23.544  22.492  0.00  0.00    -0.287 N 
ATOM      7  C   UNL d   1     -24.502  22.672  21.684  0.00  0.00     0.263 A 
ATOM      8  O   UNL d   1     -23.878  22.041  20.849  0.00  0.00    -0.267 OA
ATOM      9  C   UNL d   1     -25.949  22.489  21.823  0.00  0.00     0.046 A 
ATOM     10  C   UNL d   1     -26.659  21.597  21.016  0.00  0.00     0.062 A 
ATOM     11  C   UNL d   1     -28.010  21.464  21.181  0.00  0.00     0.146 A 
ATOM     12  F   UNL d   1     -28.695  20.600  20.399  0.00  0.00    -0.204 F 
ENDROOT
BRANCH   1  13
ATOM     13  N   UNL d   1     -30.072  22.055  22.296  0.00  0.00    -0.178 N 
ATOM     14  N   UNL d   1     -31.032  22.140  21.278  0.00  0.00    -0.147 NA
ATOM     15  C   UNL d   1     -32.197  21.940  21.805  0.00  0.00     0.154 A 
ATOM     16  N   UNL d   1     -32.041  21.724  23.153  0.00  0.00    -0.283 N 
ATOM     17  C   UNL d   1     -30.727  21.790  23.445  0.00  0.00     0.351 A 
ATOM     18  O   UNL d   1     -30.225  21.642  24.544  0.00  0.00    -0.244 OA
BRANCH  15  19
ATOM     19  C   UNL d   1     -33.508  21.947  21.064  0.00  0.00     0.244 C 
BRANCH  19  20
ATOM     20  O   UNL d   1     -33.877  20.605  20.738  0.00  0.00    -0.393 OA
ATOM     21  H   UNL d   1     -34.818  20.490  20.550  0.00  0.00     0.209 HD
ENDBRANCH  19  20
ENDBRANCH  15  19
BRANCH  16  22
ATOM     22  C   UNL d   1     -33.120  21.459  24.109  0.00  0.00     0.131 C 
ATOM     23  C   UNL d   1     -33.289  19.948  24.281  0.00  0.00     0.027 C 
ENDBRANCH  16  22
ENDBRANCH   1  13
BRANCH   4  24
ATOM     24  C   UNL d   1     -26.536  25.002  24.689  0.00  0.00     0.013 C 
ATOM     25  C   UNL d   1     -26.876  24.120  25.890  0.00  0.00     0.015 C 
ATOM     26  C   UNL d   1     -25.602  26.131  25.132  0.00  0.00     0.015 C 
ENDBRANCH   4  24
BRANCH   6  27
ATOM     27  C   UNL d   1     -22.484  23.710  22.355  0.00  0.00     0.063 A 
ATOM     28  C   UNL d   1     -21.970  24.390  21.258  0.00  0.00     0.061 A 
ATOM     29  C   UNL d   1     -20.604  24.555  21.129  0.00  0.00     0.026 A 
ATOM     30 CL   UNL d   1     -23.041  25.037  20.055  0.00  0.00    -0.082 Cl
ATOM     31  C   UNL d   1     -19.750  24.041  22.087  0.00  0.00     0.002 A 
ATOM     32  C   UNL d   1     -20.259  23.360  23.177  0.00  0.00     0.002 A 
ATOM     33  C   UNL d   1     -21.622  23.189  23.312  0.00  0.00     0.032 A 
ENDBRANCH   6  27
TORSDOF 6
ENDMDL
