MODEL 1
REMARK VINA RESULT:     -12.2      0.000      0.000
REMARK  5 active torsions:
REMARK  status: ('A' for Active; 'I' for Inactive)
REMARK    1  A    between atoms: C_2  and  O_3 
REMARK    2  A    between atoms: C_2  and  C_4 
REMARK    3  A    between atoms: C_5  and  O_6 
REMARK    4  A    between atoms: C_7  and  C_8 
REMARK    5  A    between atoms: C_11  and  C_12 
ROOT
ATOM      1  C   UNL d   1     -30.229  21.504  24.574  0.00  0.00     0.085 A 
ATOM      2  C   UNL d   1     -28.882  21.833  24.425  0.00  0.00     0.113 A 
ATOM      3  C   UNL d   1     -28.420  22.293  23.175  0.00  0.00     0.102 A 
ATOM      4  N   UNL d   1     -29.216  22.415  22.135  0.00  0.00    -0.245 NA
ATOM      5  C   UNL d   1     -30.516  22.116  22.189  0.00  0.00     0.069 A 
ATOM      6  C   UNL d   1     -31.337  22.259  21.055  0.00  0.00     0.035 A 
ATOM      7  C   UNL d   1     -32.660  21.949  21.136  0.00  0.00     0.044 A 
ATOM      8  C   UNL d   1     -33.220  21.490  22.328  0.00  0.00     0.117 A 
ATOM      9  F   UNL d   1     -34.536  21.191  22.376  0.00  0.00    -0.206 F 
ATOM     10  C   UNL d   1     -32.452  21.339  23.448  0.00  0.00     0.057 A 
ATOM     11  C   UNL d   1     -31.090  21.650  23.398  0.00  0.00     0.015 A 
ENDROOT
BRANCH   3  12
ATOM     12  C   UNL d   1     -26.989  22.647  23.025  0.00  0.00    -0.004 A 
ATOM     13  C   UNL d   1     -26.176  21.916  22.158  0.00  0.00     0.014 A 
ATOM     14  C   UNL d   1     -24.847  22.248  22.015  0.00  0.00     0.013 A 
ATOM     15  C   UNL d   1     -24.311  23.308  22.746  0.00  0.00    -0.026 A 
ATOM     16  C   UNL d   1     -25.123  24.040  23.613  0.00  0.00     0.013 A 
ATOM     17  C   UNL d   1     -26.454  23.711  23.752  0.00  0.00     0.014 A 
BRANCH  15  18
ATOM     18  C   UNL d   1     -22.879  23.663  22.595  0.00  0.00    -0.026 A 
ATOM     19  C   UNL d   1     -22.032  23.636  23.700  0.00  0.00     0.012 A 
ATOM     20  C   UNL d   1     -20.700  23.967  23.554  0.00  0.00     0.001 A 
ATOM     21  C   UNL d   1     -20.206  24.326  22.312  0.00  0.00     0.000 A 
ATOM     22  C   UNL d   1     -21.044  24.356  21.211  0.00  0.00     0.001 A 
ATOM     23  C   UNL d   1     -22.376  24.021  21.345  0.00  0.00     0.012 A 
ENDBRANCH  15  18
ENDBRANCH   3  12
BRANCH   2  24
ATOM     24  O   UNL d   1     -28.028  21.716  25.470  0.00  0.00    -0.357 OA
ATOM     25  H   UNL d   1     -27.440  22.476  25.585  0.00  0.00     0.217 HD
ENDBRANCH   2  24
BRANCH   1  26
ATOM     26  C   UNL d   1     -30.764  21.023  25.860  0.00  0.00     0.180 C 
ATOM     27  O   UNL d   1     -31.535  21.716  26.495  0.00  0.00    -0.646 OA
BRANCH  26  28
ATOM     28  O   UNL d   1     -30.400  19.814  26.332  0.00  0.00    -0.773 OA
ATOM     29  H   UNL d   1     -30.663  19.042  25.814  0.00  0.00     0.167 HD
ENDBRANCH  26  28
ENDBRANCH   1  26
TORSDOF 5
ENDMDL
