MODEL 1
REMARK VINA RESULT:     -11.1      0.000      0.000
REMARK  9 active torsions:
REMARK  status: ('A' for Active; 'I' for Inactive)
REMARK    1  A    between atoms: C_4  and  C_5 
REMARK    2  A    between atoms: C_5  and  O_7 
REMARK    3  A    between atoms: C_10  and  C_11 
REMARK    4  A    between atoms: C_14  and  C_15 
REMARK    5  A    between atoms: C_18  and  O_19 
REMARK    6  A    between atoms: O_19  and  C_20 
REMARK    7  A    between atoms: C_20  and  C_21 
REMARK    8  A    between atoms: C_21  and  C_22 
REMARK    9  A    between atoms: C_22  and  N_23 
ROOT
ATOM      1  C   UNL d   1     -26.776  22.862  22.996  0.00  0.00     0.010 A 
ATOM      2  C   UNL d   1     -26.236  23.837  23.838  0.00  0.00     0.016 A 
ATOM      3  C   UNL d   1     -24.895  24.143  23.766  0.00  0.00     0.013 A 
ATOM      4  C   UNL d   1     -24.077  23.483  22.848  0.00  0.00    -0.026 A 
ATOM      5  C   UNL d   1     -24.615  22.506  22.011  0.00  0.00     0.013 A 
ATOM      6  C   UNL d   1     -25.954  22.198  22.081  0.00  0.00     0.016 A 
ENDROOT
BRANCH   4   7
ATOM      7  C   UNL d   1     -22.636  23.818  22.767  0.00  0.00    -0.026 A 
ATOM      8  C   UNL d   1     -21.882  23.948  23.934  0.00  0.00     0.015 A 
ATOM      9  C   UNL d   1     -20.542  24.261  23.856  0.00  0.00     0.037 A 
ATOM     10  C   UNL d   1     -19.941  24.445  22.616  0.00  0.00     0.068 A 
ATOM     11  C   UNL d   1     -20.689  24.315  21.454  0.00  0.00     0.037 A 
ATOM     12  C   UNL d   1     -22.028  23.998  21.525  0.00  0.00     0.015 A 
BRANCH  10  13
ATOM     13  O   UNL d   1     -18.620  24.752  22.542  0.00  0.00    -0.351 OA
BRANCH  13  14
ATOM     14  C   UNL d   1     -18.183  25.911  23.254  0.00  0.00     0.177 C 
BRANCH  14  15
ATOM     15  C   UNL d   1     -16.765  26.276  22.812  0.00  0.00     0.057 C 
BRANCH  15  16
ATOM     16  C   UNL d   1     -15.915  26.601  24.042  0.00  0.00     0.274 C 
BRANCH  16  17
ATOM     17  N   UNL d   1     -14.973  25.501  24.291  0.00  0.00     0.092 N 
ATOM     18  C   UNL d   1     -14.731  24.727  23.065  0.00  0.00     0.298 C 
ATOM     19  C   UNL d   1     -13.702  23.631  23.355  0.00  0.00     0.198 C 
ATOM     20  O   UNL d   1     -14.175  22.812  24.427  0.00  0.00    -0.388 OA
ATOM     21  C   UNL d   1     -14.420  23.534  25.637  0.00  0.00     0.198 C 
ATOM     22  C   UNL d   1     -15.457  24.628  25.371  0.00  0.00     0.298 C 
ENDBRANCH  16  17
ENDBRANCH  15  16
ENDBRANCH  14  15
ENDBRANCH  13  14
ENDBRANCH  10  13
ENDBRANCH   4   7
BRANCH   1  23
ATOM     23  C   UNL d   1     -28.213  22.533  23.072  0.00  0.00     0.139 A 
ATOM     24  N   UNL d   1     -28.827  22.063  24.135  0.00  0.00    -0.227 NA
ATOM     25  C   UNL d   1     -30.130  21.876  23.862  0.00  0.00     0.102 A 
ATOM     26  C   UNL d   1     -31.221  21.400  24.624  0.00  0.00     0.069 A 
ATOM     27  C   UNL d   1     -30.338  22.260  22.526  0.00  0.00     0.064 A 
ATOM     28  C   UNL d   1     -32.482  21.321  24.036  0.00  0.00     0.027 A 
ATOM     29  C   UNL d   1     -32.665  21.704  22.721  0.00  0.00    -0.059 A 
ATOM     30  C   UNL d   1     -34.037  21.612  22.102  0.00  0.00     0.048 C 
ATOM     31  C   UNL d   1     -31.604  22.170  21.968  0.00  0.00     0.038 A 
ATOM     32  N   UNL d   1     -29.110  22.679  22.050  0.00  0.00    -0.338 N 
ATOM     33  H   UNL d   1     -28.920  23.009  21.158  0.00  0.00     0.167 HD
BRANCH  26  34
ATOM     34  C   UNL d   1     -31.027  20.992  26.024  0.00  0.00     0.178 C 
ATOM     35  O   UNL d   1     -31.585  20.000  26.451  0.00  0.00    -0.646 OA
BRANCH  34  36
ATOM     36  O   UNL d   1     -30.232  21.720  26.834  0.00  0.00    -0.773 OA
ATOM     37  H   UNL d   1     -29.281  21.682  26.664  0.00  0.00     0.167 HD
ENDBRANCH  34  36
ENDBRANCH  26  34
ENDBRANCH   1  23
TORSDOF 9
ENDMDL
