MODEL 1
REMARK VINA RESULT:     -10.6      0.000      0.000
REMARK  6 active torsions:
REMARK  status: ('A' for Active; 'I' for Inactive)
REMARK    1  A    between atoms: C_7  and  N_8 
REMARK       I    between atoms: N_8  and  C_9 
REMARK    2  A    between atoms: C_9  and  C_11 
REMARK    3  A    between atoms: C_15  and  N_16 
REMARK    4  A    between atoms: C_27  and  O_28 
REMARK    5  A    between atoms: O_28  and  C_29 
REMARK    6  A    between atoms: C_29  and  C_31 
ROOT
ATOM      1  C   UNL d   1     -24.291  24.451  23.447  0.00  0.00     0.068 A 
ATOM      2  C   UNL d   1     -25.162  24.978  24.408  0.00  0.00     0.064 A 
ATOM      3  C   UNL d   1     -26.411  24.424  24.580  0.00  0.00     0.146 A 
ATOM      4  F   UNL d   1     -27.251  24.933  25.508  0.00  0.00    -0.204 F 
ATOM      5  C   UNL d   1     -26.811  23.340  23.800  0.00  0.00     0.104 A 
ATOM      6  C   UNL d   1     -25.951  22.808  22.849  0.00  0.00     0.073 A 
ATOM      7  C   UNL d   1     -24.696  23.360  22.664  0.00  0.00     0.087 A 
ENDROOT
BRANCH   1   8
ATOM      8  C   UNL d   1     -22.954  25.039  23.261  0.00  0.00     0.259 C 
ATOM      9  N   UNL d   1     -21.880  24.472  23.846  0.00  0.00    -0.321 N 
ATOM     10  H   UNL d   1     -21.997  23.727  24.455  0.00  0.00     0.169 HD
ATOM     11  O   UNL d   1     -22.819  26.038  22.580  0.00  0.00    -0.267 OA
BRANCH   9  12
ATOM     12  C   UNL d   1     -20.597  24.959  23.575  0.00  0.00     0.059 A 
ATOM     13  C   UNL d   1     -20.004  25.890  24.416  0.00  0.00     0.057 A 
ATOM     14  C   UNL d   1     -20.749  26.378  25.632  0.00  0.00     0.072 C 
ATOM     15  N   UNL d   1     -18.793  26.347  24.167  0.00  0.00    -0.264 NA
ATOM     16  C   UNL d   1     -18.106  25.953  23.112  0.00  0.00     0.117 A 
ATOM     17  C   UNL d   1     -18.632  25.033  22.224  0.00  0.00     0.022 A 
ATOM     18  C   UNL d   1     -19.899  24.522  22.452  0.00  0.00     0.033 A 
ENDBRANCH   9  12
ENDBRANCH   1   8
BRANCH   7  19
ATOM     19  O   UNL d   1     -23.857  22.844  21.730  0.00  0.00    -0.336 OA
BRANCH  19  20
ATOM     20  C   UNL d   1     -23.949  23.379  20.408  0.00  0.00     0.232 C 
ATOM     21  C   UNL d   1     -22.558  23.796  19.929  0.00  0.00     0.049 C 
BRANCH  20  22
ATOM     22  C   UNL d   1     -24.515  22.315  19.466  0.00  0.00     0.413 C 
ATOM     23  F   UNL d   1     -24.599  22.836  18.170  0.00  0.00    -0.168 F 
ATOM     24  F   UNL d   1     -23.674  21.198  19.466  0.00  0.00    -0.168 F 
ATOM     25  F   UNL d   1     -25.791  21.939  19.900  0.00  0.00    -0.168 F 
ENDBRANCH  20  22
ENDBRANCH  19  20
ENDBRANCH   7  19
BRANCH   5  26
ATOM     26  N   UNL d   1     -28.080  22.783  23.980  0.00  0.00    -0.178 N 
ATOM     27  C   UNL d   1     -28.476  22.015  25.018  0.00  0.00     0.351 A 
ATOM     28  N   UNL d   1     -29.770  21.713  24.822  0.00  0.00    -0.284 N 
ATOM     29  O   UNL d   1     -27.787  21.659  25.957  0.00  0.00    -0.244 OA
ATOM     30  C   UNL d   1     -30.169  22.271  23.624  0.00  0.00     0.131 A 
ATOM     31  C   UNL d   1     -30.653  20.947  25.708  0.00  0.00     0.135 C 
ATOM     32  N   UNL d   1     -29.176  22.916  23.115  0.00  0.00    -0.149 NA
ATOM     33  C   UNL d   1     -31.556  22.113  23.046  0.00  0.00     0.081 C 
ATOM     34  C   UNL d   1     -32.493  21.666  24.175  0.00  0.00     0.009 C 
ATOM     35  C   UNL d   1     -31.866  20.471  24.901  0.00  0.00     0.021 C 
ENDBRANCH   5  26
TORSDOF 6
ENDMDL
