MODEL 1
REMARK VINA RESULT:     -11.3      0.000      0.000
REMARK  3 active torsions:
REMARK  status: ('A' for Active; 'I' for Inactive)
REMARK       I    between atoms: C_2  and  N_3 
REMARK    1  A    between atoms: C_2  and  C_21 
REMARK    2  A    between atoms: N_3  and  C_4 
REMARK    3  A    between atoms: N_12  and  C_13 
ROOT
ATOM      1  C   UNL d   1     -27.275  22.286  22.283  0.00  0.00     0.121 C 
ATOM      2  C   UNL d   1     -26.537  21.174  21.527  0.00  0.00     0.030 C 
ATOM      3  C   UNL d   1     -25.439  21.790  20.656  0.00  0.00     0.008 C 
ATOM      4  C   UNL d   1     -24.315  22.325  21.551  0.00  0.00     0.060 C 
ATOM      5  C   UNL d   1     -24.932  23.183  22.627  0.00  0.00     0.046 A 
ATOM      6  C   UNL d   1     -26.250  23.167  22.952  0.00  0.00     0.008 A 
ATOM      7  C   UNL d   1     -26.451  24.086  23.979  0.00  0.00     0.150 A 
ATOM      8  N   UNL d   1     -25.296  24.637  24.266  0.00  0.00    -0.179 NA
ATOM      9  N   UNL d   1     -24.322  24.080  23.424  0.00  0.00    -0.235 N 
ENDROOT
BRANCH   1  10
ATOM     10  N   UNL d   1     -28.154  21.695  23.295  0.00  0.00    -0.346 N 
ATOM     11  C   UNL d   1     -29.408  22.163  23.454  0.00  0.00     0.278 C 
ATOM     12  O   UNL d   1     -29.810  23.076  22.758  0.00  0.00    -0.265 OA
ATOM     13  H   UNL d   1     -27.833  20.968  23.850  0.00  0.00     0.163 HD
BRANCH  11  14
ATOM     14  C   UNL d   1     -30.293  21.569  24.473  0.00  0.00     0.177 A 
ATOM     15  C   UNL d   1     -31.564  21.138  24.300  0.00  0.00     0.010 A 
ATOM     16  C   UNL d   1     -31.954  20.666  25.576  0.00  0.00     0.071 A 
ATOM     17  C   UNL d   1     -32.447  21.117  23.087  0.00  0.00     0.044 C 
ATOM     18  N   UNL d   1     -30.942  20.839  26.359  0.00  0.00    -0.132 NA
ATOM     19  C   UNL d   1     -33.319  20.093  25.860  0.00  0.00     0.062 C 
ATOM     20  O   UNL d   1     -30.003  21.341  25.774  0.00  0.00    -0.207 OA
ATOM     21  C   UNL d   1     -34.254  20.504  24.715  0.00  0.00     0.006 C 
ATOM     22  C   UNL d   1     -33.616  20.161  23.368  0.00  0.00     0.005 C 
ENDBRANCH  11  14
ENDBRANCH   1  10
BRANCH   9  23
ATOM     23  C   UNL d   1     -22.956  24.401  23.414  0.00  0.00     0.097 A 
ATOM     24  C   UNL d   1     -22.542  25.668  23.018  0.00  0.00     0.148 A 
ATOM     25  C   UNL d   1     -21.195  25.982  23.011  0.00  0.00     0.087 A 
ATOM     26  F   UNL d   1     -23.454  26.591  22.643  0.00  0.00    -0.203 F 
ATOM     27  C   UNL d   1     -20.261  25.034  23.395  0.00  0.00     0.119 A 
ATOM     28  C   UNL d   1     -20.673  23.772  23.789  0.00  0.00     0.045 A 
ATOM     29  F   UNL d   1     -18.945  25.342  23.387  0.00  0.00    -0.206 F 
ATOM     30  C   UNL d   1     -22.018  23.456  23.805  0.00  0.00     0.038 A 
ENDBRANCH   9  23
TORSDOF 3
ENDMDL
