MODEL 1
REMARK VINA RESULT:      -8.6      0.000      0.000
REMARK  6 active torsions:
REMARK  status: ('A' for Active; 'I' for Inactive)
REMARK    1  A    between atoms: C_7  and  N_8 
REMARK       I    between atoms: N_8  and  C_9 
REMARK    2  A    between atoms: C_9  and  C_11 
REMARK    3  A    between atoms: C_15  and  N_16 
REMARK    4  A    between atoms: C_27  and  O_28 
REMARK    5  A    between atoms: O_28  and  C_29 
REMARK    6  A    between atoms: C_29  and  C_31 
ROOT
ATOM      1  C   UNL d   1     -19.478  25.267  23.056  0.00  0.00     0.068 A 
ATOM      2  C   UNL d   1     -19.968  24.789  21.836  0.00  0.00     0.064 A 
ATOM      3  C   UNL d   1     -21.244  24.277  21.760  0.00  0.00     0.146 A 
ATOM      4  F   UNL d   1     -21.719  23.821  20.580  0.00  0.00    -0.204 F 
ATOM      5  C   UNL d   1     -22.048  24.228  22.899  0.00  0.00     0.104 A 
ATOM      6  C   UNL d   1     -21.568  24.696  24.115  0.00  0.00     0.073 A 
ATOM      7  C   UNL d   1     -20.286  25.211  24.201  0.00  0.00     0.087 A 
ENDROOT
BRANCH   1   8
ATOM      8  C   UNL d   1     -18.116  25.820  23.139  0.00  0.00     0.259 C 
ATOM      9  N   UNL d   1     -17.894  26.966  23.814  0.00  0.00    -0.322 N 
ATOM     10  H   UNL d   1     -18.616  27.386  24.308  0.00  0.00     0.169 HD
ATOM     11  O   UNL d   1     -17.191  25.244  22.600  0.00  0.00    -0.267 OA
BRANCH   9  12
ATOM     12  C   UNL d   1     -16.627  27.549  23.802  0.00  0.00     0.043 A 
ATOM     13  C   UNL d   1     -15.732  27.336  24.849  0.00  0.00    -0.018 A 
ATOM     14  C   UNL d   1     -16.118  26.469  26.020  0.00  0.00     0.052 C 
ATOM     15  C   UNL d   1     -14.489  27.932  24.799  0.00  0.00     0.125 A 
ATOM     16  N   UNL d   1     -14.143  28.692  23.777  0.00  0.00    -0.272 NA
ATOM     17  C   UNL d   1     -14.963  28.917  22.767  0.00  0.00     0.118 A 
ATOM     18  C   UNL d   1     -16.221  28.356  22.739  0.00  0.00     0.049 A 
ENDBRANCH   9  12
ENDBRANCH   1   8
BRANCH   7  19
ATOM     19  O   UNL d   1     -19.815  25.669  25.389  0.00  0.00    -0.345 OA
BRANCH  19  20
ATOM     20  C   UNL d   1     -20.747  26.336  26.242  0.00  0.00     0.129 C 
ATOM     21  C   UNL d   1     -20.580  25.829  27.676  0.00  0.00     0.040 C 
BRANCH  20  22
ATOM     22  C   UNL d   1     -20.489  27.843  26.200  0.00  0.00     0.015 C 
ATOM     23  C   UNL d   1     -19.144  28.149  26.864  0.00  0.00     0.007 C 
ATOM     24  C   UNL d   1     -18.885  29.656  26.823  0.00  0.00     0.000 C 
ATOM     25  C   UNL d   1     -20.002  30.385  27.573  0.00  0.00     0.000 C 
ATOM     26  C   UNL d   1     -21.346  30.081  26.909  0.00  0.00     0.000 C 
ATOM     27  C   UNL d   1     -21.605  28.573  26.950  0.00  0.00     0.007 C 
ENDBRANCH  20  22
ENDBRANCH  19  20
ENDBRANCH   7  19
BRANCH   5  28
ATOM     28  N   UNL d   1     -23.341  23.708  22.815  0.00  0.00    -0.178 N 
ATOM     29  C   UNL d   1     -24.456  24.243  23.359  0.00  0.00     0.351 A 
ATOM     30  N   UNL d   1     -25.487  23.449  23.024  0.00  0.00    -0.284 N 
ATOM     31  O   UNL d   1     -24.516  25.256  24.031  0.00  0.00    -0.244 OA
ATOM     32  C   UNL d   1     -24.996  22.387  22.291  0.00  0.00     0.131 A 
ATOM     33  C   UNL d   1     -26.906  23.650  23.334  0.00  0.00     0.135 C 
ATOM     34  N   UNL d   1     -23.724  22.535  22.146  0.00  0.00    -0.149 NA
ATOM     35  C   UNL d   1     -25.855  21.255  21.777  0.00  0.00     0.081 C 
ATOM     36  C   UNL d   1     -27.316  21.722  21.793  0.00  0.00     0.009 C 
ATOM     37  C   UNL d   1     -27.638  22.313  23.170  0.00  0.00     0.021 C 
ENDBRANCH   5  28
TORSDOF 6
ENDMDL
