MODEL 1
REMARK VINA RESULT:      -9.2      0.000      0.000
REMARK  6 active torsions:
REMARK  status: ('A' for Active; 'I' for Inactive)
REMARK    1  A    between atoms: C_2  and  C_4 
REMARK    2  A    between atoms: N_6  and  C_7 
REMARK    3  A    between atoms: C_21  and  N_22 
REMARK    4  A    between atoms: C_24  and  C_25 
REMARK    5  A    between atoms: C_25  and  O_26 
REMARK    6  A    between atoms: N_27  and  C_28 
ROOT
ATOM      1  C   UNL d   1     -25.645  24.090  23.664  0.00  0.00    -0.004 A 
ATOM      2  C   UNL d   1     -24.332  24.235  23.349  0.00  0.00     0.113 A 
ATOM      3  N   UNL d   1     -23.756  23.564  22.312  0.00  0.00    -0.283 N 
ATOM      4  C   UNL d   1     -24.449  22.720  21.524  0.00  0.00     0.263 A 
ATOM      5  O   UNL d   1     -23.894  22.145  20.605  0.00  0.00    -0.267 OA
ATOM      6  C   UNL d   1     -25.875  22.499  21.778  0.00  0.00     0.047 A 
ATOM      7  C   UNL d   1     -26.638  21.634  20.989  0.00  0.00     0.062 A 
ATOM      8  C   UNL d   1     -27.966  21.461  21.264  0.00  0.00     0.146 A 
ATOM      9  F   UNL d   1     -28.702  20.624  20.499  0.00  0.00    -0.204 F 
ATOM     10  C   UNL d   1     -28.570  22.138  22.327  0.00  0.00     0.103 A 
ATOM     11  C   UNL d   1     -27.833  22.999  23.121  0.00  0.00     0.048 A 
ATOM     12  C   UNL d   1     -26.480  23.187  22.854  0.00  0.00    -0.006 A 
ENDROOT
BRANCH  10  13
ATOM     13  N   UNL d   1     -29.929  21.943  22.589  0.00  0.00    -0.178 N 
ATOM     14  C   UNL d   1     -30.947  22.134  21.724  0.00  0.00     0.351 A 
ATOM     15  N   UNL d   1     -32.089  21.830  22.371  0.00  0.00    -0.283 N 
ATOM     16  O   UNL d   1     -30.851  22.510  20.569  0.00  0.00    -0.244 OA
ATOM     17  C   UNL d   1     -31.772  21.457  23.654  0.00  0.00     0.154 A 
ATOM     18  N   UNL d   1     -30.488  21.518  23.802  0.00  0.00    -0.147 NA
BRANCH  15  19
ATOM     19  C   UNL d   1     -33.440  21.895  21.806  0.00  0.00     0.131 C 
ATOM     20  C   UNL d   1     -33.874  20.499  21.359  0.00  0.00     0.027 C 
ENDBRANCH  15  19
BRANCH  17  21
ATOM     21  C   UNL d   1     -32.759  21.043  24.716  0.00  0.00     0.244 C 
BRANCH  21  22
ATOM     22  O   UNL d   1     -32.148  21.155  26.004  0.00  0.00    -0.393 OA
ATOM     23  H   UNL d   1     -32.603  20.659  26.699  0.00  0.00     0.209 HD
ENDBRANCH  21  22
ENDBRANCH  17  21
ENDBRANCH  10  13
BRANCH   1  24
ATOM     24  C   UNL d   1     -26.228  24.830  24.799  0.00  0.00    -0.059 C 
ATOM     25  C   UNL d   1     -26.054  26.143  24.894  0.00  0.00     0.019 C 
ATOM     26  C   UNL d   1     -27.023  24.098  25.849  0.00  0.00     0.048 C 
ENDBRANCH   1  24
BRANCH   3  27
ATOM     27  C   UNL d   1     -22.387  23.763  22.053  0.00  0.00     0.108 A 
ATOM     28  C   UNL d   1     -21.357  23.374  22.850  0.00  0.00     0.149 A 
ATOM     29  N   UNL d   1     -20.208  23.752  22.247  0.00  0.00    -0.265 N 
ATOM     30 CL   UNL d   1     -21.492  22.541  24.368  0.00  0.00    -0.060 Cl
ATOM     31  N   UNL d   1     -20.539  24.392  21.046  0.00  0.00    -0.176 NA
ATOM     32  H   UNL d   1     -19.311  23.606  22.586  0.00  0.00     0.190 HD
ATOM     33  C   UNL d   1     -21.842  24.394  20.926  0.00  0.00     0.081 A 
ATOM     34  C   UNL d   1     -22.622  24.978  19.777  0.00  0.00     0.075 C 
ENDBRANCH   3  27
TORSDOF 6
ENDMDL
