MODEL 1
REMARK VINA RESULT:     -10.2      0.000      0.000
REMARK  7 active torsions:
REMARK  status: ('A' for Active; 'I' for Inactive)
REMARK    1  A    between atoms: C_2  and  C_3 
REMARK    2  A    between atoms: C_3  and  O_4 
REMARK    3  A    between atoms: C_5  and  C_8 
REMARK       I    between atoms: C_8  and  N_10 
REMARK    4  A    between atoms: N_10  and  C_11 
REMARK    5  A    between atoms: C_14  and  C_15 
REMARK    6  A    between atoms: C_21  and  C_22 
REMARK    7  A    between atoms: C_22  and  O_24 
ROOT
ATOM      1  C   UNL d   1     -32.266  21.764  22.686  0.00  0.00     0.069 C 
ATOM      2  C   UNL d   1     -31.350  21.921  23.683  0.00  0.00     0.141 C 
ATOM      3  C   UNL d   1     -31.701  21.600  25.034  0.00  0.00     0.107 C 
ATOM      4  N   UNL d   1     -31.979  21.344  26.105  0.00  0.00    -0.191 NA
ENDROOT
BRANCH   2   5
ATOM      5  C   UNL d   1     -30.003  22.421  23.373  0.00  0.00     0.269 C 
ATOM      6  O   UNL d   1     -29.838  23.184  22.440  0.00  0.00    -0.266 OA
ATOM      7  N   UNL d   1     -28.952  22.033  24.122  0.00  0.00    -0.322 N 
ATOM      8  H   UNL d   1     -29.093  21.481  24.907  0.00  0.00     0.169 HD
BRANCH   7   9
ATOM      9  C   UNL d   1     -27.659  22.429  23.769  0.00  0.00     0.036 A 
ATOM     10  C   UNL d   1     -27.052  21.887  22.647  0.00  0.00     0.048 A 
ATOM     11  C   UNL d   1     -25.762  22.282  22.294  0.00  0.00     0.052 A 
ATOM     12  C   UNL d   1     -25.085  23.231  23.082  0.00  0.00    -0.009 A 
ATOM     13  C   UNL d   1     -25.709  23.766  24.207  0.00  0.00     0.015 A 
ATOM     14  C   UNL d   1     -26.985  23.368  24.546  0.00  0.00     0.030 A 
BRANCH  11  15
ATOM     15  C   UNL d   1     -25.111  21.709  21.101  0.00  0.00     0.293 C 
ATOM     16  O   UNL d   1     -24.318  20.797  21.222  0.00  0.00    -0.259 OA
BRANCH  15  17
ATOM     17  O   UNL d   1     -25.396  22.198  19.878  0.00  0.00    -0.322 OA
ATOM     18  C   UNL d   1     -24.275  22.431  18.984  0.00  0.00     0.213 C 
ENDBRANCH  15  17
ENDBRANCH  11  15
BRANCH  12  19
ATOM     19  C   UNL d   1     -23.715  23.659  22.718  0.00  0.00    -0.025 A 
ATOM     20  C   UNL d   1     -23.523  24.634  21.740  0.00  0.00     0.012 A 
ATOM     21  C   UNL d   1     -22.243  25.029  21.405  0.00  0.00     0.001 A 
ATOM     22  C   UNL d   1     -21.153  24.460  22.038  0.00  0.00     0.000 A 
ATOM     23  C   UNL d   1     -21.337  23.493  23.009  0.00  0.00     0.001 A 
ATOM     24  C   UNL d   1     -22.611  23.093  23.357  0.00  0.00     0.012 A 
ENDBRANCH  12  19
ENDBRANCH   7   9
ENDBRANCH   2   5
BRANCH   1  25
ATOM     25  C   UNL d   1     -33.647  21.252  23.004  0.00  0.00     0.061 C 
ATOM     26  C   UNL d   1     -34.067  20.228  21.947  0.00  0.00     0.012 C 
ENDBRANCH   1  25
BRANCH   1  27
ATOM     27  O   UNL d   1     -31.936  22.066  21.418  0.00  0.00    -0.363 OA
ATOM     28  H   UNL d   1     -32.277  22.899  21.063  0.00  0.00     0.217 HD
ENDBRANCH   1  27
TORSDOF 7
ENDMDL
