MODEL 1
REMARK VINA RESULT:      -8.7      0.000      0.000
REMARK  13 active torsions:
REMARK  status: ('A' for Active; 'I' for Inactive)
REMARK    1  A    between atoms: C_4  and  N_5 
REMARK    2  A    between atoms: C_8  and  N_9 
REMARK       I    between atoms: N_9  and  C_10 
REMARK    3  A    between atoms: C_10  and  C_12 
REMARK    4  A    between atoms: C_16  and  N_17 
REMARK    5  A    between atoms: C_19  and  C_20 
REMARK    6  A    between atoms: C_20  and  N_22 
REMARK    7  A    between atoms: N_22  and  C_23 
REMARK    8  A    between atoms: N_22  and  C_30 
REMARK    9  A    between atoms: C_23  and  C_24 
REMARK   10  A    between atoms: C_30  and  C_31 
REMARK   11  A    between atoms: C_42  and  O_43 
REMARK   12  A    between atoms: O_43  and  C_44 
REMARK   13  A    between atoms: C_44  and  C_46 
ROOT
ATOM      1  C   UNL d   1     -21.711  26.660  24.635  0.00  0.00     0.068 A 
ATOM      2  C   UNL d   1     -22.227  27.842  25.176  0.00  0.00     0.064 A 
ATOM      3  C   UNL d   1     -21.581  28.458  26.224  0.00  0.00     0.146 A 
ATOM      4  F   UNL d   1     -22.080  29.600  26.745  0.00  0.00    -0.204 F 
ATOM      5  C   UNL d   1     -20.413  27.906  26.749  0.00  0.00     0.104 A 
ATOM      6  C   UNL d   1     -19.894  26.733  26.219  0.00  0.00     0.073 A 
ATOM      7  C   UNL d   1     -20.536  26.106  25.164  0.00  0.00     0.087 A 
ENDROOT
BRANCH   5   8
ATOM      8  N   UNL d   1     -19.760  28.538  27.810  0.00  0.00    -0.178 N 
ATOM      9  C   UNL d   1     -18.556  29.147  27.758  0.00  0.00     0.351 A 
ATOM     10  N   UNL d   1     -18.294  29.626  28.991  0.00  0.00    -0.287 N 
ATOM     11  O   UNL d   1     -17.839  29.245  26.779  0.00  0.00    -0.244 OA
ATOM     12  C   UNL d   1     -19.349  29.309  29.812  0.00  0.00     0.164 A 
ATOM     13  C   UNL d   1     -17.090  30.360  29.387  0.00  0.00     0.163 C 
ATOM     14  N   UNL d   1     -20.235  28.665  29.123  0.00  0.00    -0.147 NA
BRANCH  12  15
ATOM     15  C   UNL d   1     -19.460  29.659  31.273  0.00  0.00     0.290 C 
ATOM     16  C   UNL d   1     -19.262  31.165  31.454  0.00  0.00     0.051 C 
BRANCH  15  17
ATOM     17  N   UNL d   1     -20.788  29.277  31.769  0.00  0.00     0.108 N 
BRANCH  17  18
ATOM     18  C   UNL d   1     -20.682  28.310  32.871  0.00  0.00     0.312 C 
BRANCH  18  19
ATOM     19  C   UNL d   1     -20.429  26.935  32.307  0.00  0.00    -0.030 A 
ATOM     20  C   UNL d   1     -21.285  26.409  31.358  0.00  0.00     0.009 A 
ATOM     21  C   UNL d   1     -21.054  25.149  30.840  0.00  0.00     0.001 A 
ATOM     22  C   UNL d   1     -19.965  24.414  31.272  0.00  0.00     0.000 A 
ATOM     23  C   UNL d   1     -19.108  24.940  32.221  0.00  0.00     0.001 A 
ATOM     24  C   UNL d   1     -19.337  26.203  32.734  0.00  0.00     0.009 A 
ENDBRANCH  18  19
ENDBRANCH  17  18
BRANCH  17  25
ATOM     25  C   UNL d   1     -21.559  30.459  32.178  0.00  0.00     0.312 C 
BRANCH  25  26
ATOM     26  C   UNL d   1     -22.952  30.372  31.611  0.00  0.00    -0.030 A 
ATOM     27  C   UNL d   1     -23.984  31.078  32.200  0.00  0.00     0.009 A 
ATOM     28  C   UNL d   1     -25.261  30.998  31.679  0.00  0.00     0.001 A 
ATOM     29  C   UNL d   1     -25.508  30.212  30.569  0.00  0.00     0.000 A 
ATOM     30  C   UNL d   1     -24.477  29.506  29.980  0.00  0.00     0.001 A 
ATOM     31  C   UNL d   1     -23.197  29.590  30.497  0.00  0.00     0.009 A 
ENDBRANCH  25  26
ENDBRANCH  17  25
ENDBRANCH  15  17
ENDBRANCH  12  15
ENDBRANCH   5   8
BRANCH   7  32
ATOM     32  O   UNL d   1     -20.029  24.960  24.645  0.00  0.00    -0.345 OA
BRANCH  32  33
ATOM     33  C   UNL d   1     -18.841  25.072  23.859  0.00  0.00     0.129 C 
ATOM     34  C   UNL d   1     -19.210  25.486  22.433  0.00  0.00     0.040 C 
BRANCH  33  35
ATOM     35  C   UNL d   1     -17.920  26.127  24.475  0.00  0.00     0.015 C 
ATOM     36  C   UNL d   1     -16.811  25.436  25.270  0.00  0.00     0.007 C 
ATOM     37  C   UNL d   1     -15.891  26.492  25.886  0.00  0.00     0.000 C 
ATOM     38  C   UNL d   1     -15.269  27.337  24.774  0.00  0.00     0.000 C 
ATOM     39  C   UNL d   1     -16.378  28.030  23.979  0.00  0.00     0.000 C 
ATOM     40  C   UNL d   1     -17.298  26.974  23.363  0.00  0.00     0.007 C 
ENDBRANCH  33  35
ENDBRANCH  32  33
ENDBRANCH   7  32
BRANCH   1  41
ATOM     41  C   UNL d   1     -22.399  25.998  23.513  0.00  0.00     0.259 C 
ATOM     42  N   UNL d   1     -22.362  24.656  23.397  0.00  0.00    -0.322 N 
ATOM     43  H   UNL d   1     -21.941  24.121  24.088  0.00  0.00     0.169 HD
ATOM     44  O   UNL d   1     -23.002  26.664  22.692  0.00  0.00    -0.267 OA
BRANCH  42  45
ATOM     45  C   UNL d   1     -22.930  24.034  22.277  0.00  0.00     0.041 A 
ATOM     46  C   UNL d   1     -24.142  23.367  22.395  0.00  0.00    -0.033 A 
ATOM     47  C   UNL d   1     -24.845  23.310  23.727  0.00  0.00     0.050 C 
ATOM     48  C   UNL d   1     -24.705  22.758  21.292  0.00  0.00     0.038 A 
ATOM     49  C   UNL d   1     -24.054  22.804  20.065  0.00  0.00     0.026 A 
ATOM     50  C   UNL d   1     -22.839  23.467  19.949  0.00  0.00     0.031 A 
ATOM     51  C   UNL d   1     -22.279  24.081  21.051  0.00  0.00     0.032 A 
BRANCH  49  52
ATOM     52  N   UNL d   1     -24.621  22.182  18.948  0.00  0.00    -0.399 N 
ATOM     53  H   UNL d   1     -25.285  22.649  18.417  0.00  0.00     0.156 HD
ATOM     54  H   UNL d   1     -24.351  21.283  18.705  0.00  0.00     0.156 HD
ENDBRANCH  49  52
ENDBRANCH  42  45
ENDBRANCH   1  41
TORSDOF 13
ENDMDL
