MODEL 1
REMARK VINA RESULT:     -11.2      0.000      0.000
REMARK  4 active torsions:
REMARK  status: ('A' for Active; 'I' for Inactive)
REMARK    1  A    between atoms: O_1  and  C_2 
REMARK    2  A    between atoms: C_9  and  O_10 
REMARK    3  A    between atoms: N_15  and  C_16 
REMARK    4  A    between atoms: C_20  and  C_21 
ROOT
ATOM      1  C   UNL d   1     -30.724  21.354  25.097  0.00  0.00     0.207 C 
ATOM      2  C   UNL d   1     -31.251  21.681  23.722  0.00  0.00    -0.014 A 
ATOM      3  C   UNL d   1     -32.625  21.586  23.532  0.00  0.00     0.011 A 
ATOM      4  C   UNL d   1     -33.187  21.866  22.304  0.00  0.00     0.001 A 
ATOM      5  C   UNL d   1     -32.377  22.245  21.250  0.00  0.00     0.001 A 
ATOM      6  C   UNL d   1     -31.015  22.339  21.436  0.00  0.00     0.011 A 
ATOM      7  C   UNL d   1     -30.445  22.058  22.672  0.00  0.00    -0.015 A 
ATOM      8  C   UNL d   1     -28.947  22.187  22.785  0.00  0.00     0.206 C 
ATOM      9  C   UNL d   1     -28.536  22.251  24.225  0.00  0.00     0.101 A 
ATOM     10  C   UNL d   1     -29.328  21.879  25.260  0.00  0.00     0.119 A 
ATOM     11  N   UNL d   1     -28.625  22.076  26.371  0.00  0.00    -0.131 NA
ATOM     12  N   UNL d   1     -27.465  22.542  26.052  0.00  0.00    -0.060 NA
ATOM     13  N   UNL d   1     -27.368  22.663  24.770  0.00  0.00    -0.214 N 
ENDROOT
BRANCH  13  14
ATOM     14  C   UNL d   1     -26.251  23.137  24.068  0.00  0.00     0.066 A 
ATOM     15  C   UNL d   1     -25.510  22.269  23.277  0.00  0.00     0.075 A 
ATOM     16  C   UNL d   1     -24.409  22.733  22.584  0.00  0.00     0.132 A 
ATOM     17  C   UNL d   1     -24.041  24.076  22.680  0.00  0.00     0.054 A 
ATOM     18  F   UNL d   1     -23.689  21.888  21.814  0.00  0.00    -0.205 F 
ATOM     19  C   UNL d   1     -24.789  24.945  23.476  0.00  0.00     0.132 A 
ATOM     20  C   UNL d   1     -25.892  24.476  24.162  0.00  0.00     0.075 A 
ATOM     21  F   UNL d   1     -24.437  26.246  23.572  0.00  0.00    -0.205 F 
BRANCH  17  22
ATOM     22  C   UNL d   1     -22.860  24.578  21.937  0.00  0.00     0.019 A 
ATOM     23  C   UNL d   1     -21.673  24.857  22.616  0.00  0.00     0.127 A 
ATOM     24  C   UNL d   1     -20.575  25.324  21.917  0.00  0.00     0.043 A 
ATOM     25  F   UNL d   1     -21.596  24.670  23.952  0.00  0.00    -0.205 F 
ATOM     26  C   UNL d   1     -20.653  25.515  20.550  0.00  0.00     0.003 A 
ATOM     27  C   UNL d   1     -21.827  25.240  19.873  0.00  0.00     0.001 A 
ATOM     28  C   UNL d   1     -22.929  24.768  20.559  0.00  0.00     0.015 A 
ENDBRANCH  17  22
ENDBRANCH  13  14
BRANCH   8  29
ATOM     29  O   UNL d   1     -28.327  21.058  22.167  0.00  0.00    -0.385 OA
ATOM     30  H   UNL d   1     -28.953  20.418  21.799  0.00  0.00     0.211 HD
ENDBRANCH   8  29
BRANCH   1  31
ATOM     31  O   UNL d   1     -31.570  21.949  26.082  0.00  0.00    -0.385 OA
ATOM     32  H   UNL d   1     -31.910  21.325  26.737  0.00  0.00     0.211 HD
ENDBRANCH   1  31
TORSDOF 4
ENDMDL
