MODEL 1
REMARK VINA RESULT:     -10.0      0.000      0.000
REMARK  6 active torsions:
REMARK  status: ('A' for Active; 'I' for Inactive)
REMARK    1  A    between atoms: C_2  and  N_3 
REMARK    2  A    between atoms: C_4  and  C_5 
REMARK    3  A    between atoms: C_5  and  O_6 
REMARK    4  A    between atoms: N_8  and  C_9 
REMARK    5  A    between atoms: C_12  and  C_13 
REMARK    6  A    between atoms: N_17  and  C_18 
ROOT
ATOM      1  C   UNL d   1     -28.940  22.088  21.938  0.00  0.00     0.103 A 
ATOM      2  C   UNL d   1     -28.196  22.876  22.800  0.00  0.00     0.048 A 
ATOM      3  C   UNL d   1     -26.815  22.959  22.631  0.00  0.00    -0.010 A 
ATOM      4  C   UNL d   1     -25.976  23.776  23.510  0.00  0.00    -0.028 A 
ATOM      5  C   UNL d   1     -24.650  23.820  23.301  0.00  0.00     0.103 A 
ATOM      6  N   UNL d   1     -24.045  23.125  22.293  0.00  0.00    -0.318 N 
ATOM      7  C   UNL d   1     -24.739  22.353  21.433  0.00  0.00     0.259 A 
ATOM      8  O   UNL d   1     -24.163  21.753  20.544  0.00  0.00    -0.267 OA
ATOM      9  C   UNL d   1     -26.192  22.238  21.585  0.00  0.00     0.046 A 
ATOM     10  C   UNL d   1     -26.963  21.451  20.728  0.00  0.00     0.062 A 
ATOM     11  C   UNL d   1     -28.317  21.380  20.907  0.00  0.00     0.146 A 
ATOM     12  F   UNL d   1     -29.060  20.616  20.077  0.00  0.00    -0.204 F 
ENDROOT
BRANCH   1  13
ATOM     13  N   UNL d   1     -30.325  22.000  22.101  0.00  0.00    -0.178 N 
ATOM     14  N   UNL d   1     -31.289  22.098  21.088  0.00  0.00    -0.147 NA
ATOM     15  C   UNL d   1     -32.457  21.964  21.629  0.00  0.00     0.154 A 
ATOM     16  N   UNL d   1     -32.301  21.788  22.982  0.00  0.00    -0.283 N 
ATOM     17  C   UNL d   1     -30.983  21.811  23.264  0.00  0.00     0.351 A 
ATOM     18  O   UNL d   1     -30.479  21.685  24.365  0.00  0.00    -0.244 OA
BRANCH  15  19
ATOM     19  C   UNL d   1     -33.772  22.002  20.895  0.00  0.00     0.244 C 
BRANCH  19  20
ATOM     20  O   UNL d   1     -34.593  23.037  21.441  0.00  0.00    -0.393 OA
ATOM     21  H   UNL d   1     -35.010  22.806  22.283  0.00  0.00     0.209 HD
ENDBRANCH  19  20
ENDBRANCH  15  19
BRANCH  16  22
ATOM     22  C   UNL d   1     -33.383  21.605  23.953  0.00  0.00     0.131 C 
ATOM     23  C   UNL d   1     -33.560  20.113  24.244  0.00  0.00     0.027 C 
ENDBRANCH  16  22
ENDBRANCH   1  13
BRANCH   4  24
ATOM     24  C   UNL d   1     -26.594  24.561  24.639  0.00  0.00     0.013 C 
ATOM     25  C   UNL d   1     -26.717  23.667  25.874  0.00  0.00     0.015 C 
ATOM     26  C   UNL d   1     -25.710  25.765  24.966  0.00  0.00     0.015 C 
ENDBRANCH   4  24
BRANCH   6  27
ATOM     27  C   UNL d   1     -22.592  23.229  22.136  0.00  0.00     0.096 C 
ATOM     28  C   UNL d   1     -22.240  24.589  21.531  0.00  0.00     0.005 C 
ATOM     29  C   UNL d   1     -22.733  25.702  22.459  0.00  0.00     0.006 C 
ATOM     30  C   UNL d   1     -22.911  24.729  20.165  0.00  0.00     0.012 C 
ATOM     31  C   UNL d   1     -22.062  25.562  23.826  0.00  0.00     0.001 C 
ATOM     32  C   UNL d   1     -22.414  24.201  24.430  0.00  0.00     0.002 C 
ATOM     33  C   UNL d   1     -21.921  23.088  23.504  0.00  0.00     0.026 C 
ENDBRANCH   6  27
TORSDOF 6
ENDMDL
