MODEL 1
REMARK VINA RESULT:      -9.6      0.000      0.000
REMARK  6 active torsions:
REMARK  status: ('A' for Active; 'I' for Inactive)
REMARK    1  A    between atoms: C_2  and  O_3 
REMARK    2  A    between atoms: O_3  and  C_4 
REMARK    3  A    between atoms: C_4  and  C_6 
REMARK    4  A    between atoms: C_8  and  N_9 
REMARK    5  A    between atoms: N_9  and  C_10 
REMARK    6  A    between atoms: C_19  and  C_20 
ROOT
ATOM      1  C   UNL d   1     -23.310  23.690  20.809  0.00  0.00     0.113 A 
ATOM      2  S   UNL d   1     -24.254  22.383  20.100  0.00  0.00    -0.044 SA
ATOM      3  C   UNL d   1     -25.026  22.103  21.599  0.00  0.00     0.172 A 
ATOM      4  N   UNL d   1     -24.589  22.927  22.504  0.00  0.00    -0.222 NA
ATOM      5  C   UNL d   1     -23.668  23.793  22.139  0.00  0.00     0.093 A 
ENDROOT
BRANCH   3   6
ATOM      6  N   UNL d   1     -25.982  21.134  21.817  0.00  0.00    -0.335 N 
ATOM      7  H   UNL d   1     -25.759  20.197  21.700  0.00  0.00     0.168 HD
BRANCH   6   8
ATOM      8  C   UNL d   1     -27.272  21.500  22.210  0.00  0.00     0.035 A 
ATOM      9  C   UNL d   1     -28.257  21.709  21.254  0.00  0.00     0.053 A 
ATOM     10  C   UNL d   1     -29.534  22.067  21.646  0.00  0.00     0.042 A 
ATOM     11  C   UNL d   1     -29.827  22.226  22.989  0.00  0.00    -0.040 A 
ATOM     12 CL   UNL d   1     -30.768  22.322  20.452  0.00  0.00    -0.084 Cl
ATOM     13  C   UNL d   1     -28.846  22.024  23.943  0.00  0.00     0.011 A 
ATOM     14  C   UNL d   1     -31.218  22.621  23.413  0.00  0.00     0.050 C 
ATOM     15  C   UNL d   1     -27.570  21.663  23.557  0.00  0.00     0.030 A 
ENDBRANCH   6   8
ENDBRANCH   3   6
BRANCH   1  16
ATOM     16  C   UNL d   1     -22.354  24.488  20.138  0.00  0.00     0.302 C 
ATOM     17  O   UNL d   1     -22.700  25.511  19.578  0.00  0.00    -0.259 OA
BRANCH  16  18
ATOM     18  O   UNL d   1     -21.056  24.113  20.120  0.00  0.00    -0.317 OA
BRANCH  18  19
ATOM     19  C   UNL d   1     -20.142  24.906  20.880  0.00  0.00     0.174 C 
ATOM     20  C   UNL d   1     -19.325  23.999  21.802  0.00  0.00     0.034 C 
ENDBRANCH  18  19
ENDBRANCH  16  18
ENDBRANCH   1  16
BRANCH   5  21
ATOM     21  C   UNL d   1     -23.073  24.785  23.063  0.00  0.00    -0.006 A 
ATOM     22  C   UNL d   1     -22.026  24.417  23.907  0.00  0.00     0.014 A 
ATOM     23  C   UNL d   1     -21.476  25.346  24.766  0.00  0.00     0.001 A 
ATOM     24  C   UNL d   1     -21.961  26.642  24.790  0.00  0.00     0.000 A 
ATOM     25  C   UNL d   1     -22.999  27.014  23.956  0.00  0.00     0.001 A 
ATOM     26  C   UNL d   1     -23.554  26.094  23.089  0.00  0.00     0.014 A 
ENDBRANCH   5  21
TORSDOF 6
ENDMDL
