MODEL 1
REMARK VINA RESULT:      -9.9      0.000      0.000
REMARK  5 active torsions:
REMARK  status: ('A' for Active; 'I' for Inactive)
REMARK    1  A    between atoms: C_2  and  C_4 
REMARK    2  A    between atoms: C_4  and  C_7 
REMARK       I    between atoms: C_7  and  N_9 
REMARK    3  A    between atoms: N_9  and  C_10 
REMARK    4  A    between atoms: C_13  and  C_14 
REMARK    5  A    between atoms: C_22  and  C_23 
ROOT
ATOM      1  C   UNL d   1     -21.544  24.088  22.083  0.00  0.00     0.253 C 
ATOM      2  C   UNL d   1     -21.777  24.551  20.705  0.00  0.00     0.081 C 
ATOM      3  N   UNL d   1     -21.958  24.907  19.642  0.00  0.00    -0.196 NA
ENDROOT
BRANCH   1   4
ATOM      4  C   UNL d   1     -21.081  25.246  22.930  0.00  0.00     0.149 C 
ATOM      5  C   UNL d   1     -19.667  25.280  23.453  0.00  0.00     0.093 C 
ATOM      6  O   UNL d   1     -21.842  26.147  23.189  0.00  0.00    -0.296 OA
ENDBRANCH   1   4
BRANCH   1   7
ATOM      7  C   UNL d   1     -22.823  23.531  22.651  0.00  0.00     0.247 C 
ATOM      8  O   UNL d   1     -22.788  22.772  23.597  0.00  0.00    -0.271 OA
ATOM      9  N   UNL d   1     -24.008  23.876  22.108  0.00  0.00    -0.325 N 
ATOM     10  H   UNL d   1     -24.032  24.417  21.303  0.00  0.00     0.169 HD
BRANCH   9  11
ATOM     11  C   UNL d   1     -25.200  23.453  22.705  0.00  0.00     0.050 A 
ATOM     12  C   UNL d   1     -25.902  22.381  22.167  0.00  0.00     0.075 A 
ATOM     13  C   UNL d   1     -27.075  21.959  22.757  0.00  0.00     0.030 A 
ATOM     14  C   UNL d   1     -27.556  22.608  23.894  0.00  0.00    -0.023 A 
ATOM     15  C   UNL d   1     -26.849  23.684  24.431  0.00  0.00     0.014 A 
ATOM     16  C   UNL d   1     -25.677  24.102  23.837  0.00  0.00     0.031 A 
BRANCH  12  17
ATOM     17  C   UNL d   1     -25.382  21.679  20.940  0.00  0.00     0.419 C 
ATOM     18  F   UNL d   1     -24.345  20.814  21.302  0.00  0.00    -0.166 F 
ATOM     19  F   UNL d   1     -26.417  20.945  20.349  0.00  0.00    -0.166 F 
ATOM     20  F   UNL d   1     -24.904  22.627  20.028  0.00  0.00    -0.166 F 
ENDBRANCH  12  17
BRANCH  14  21
ATOM     21  C   UNL d   1     -28.817  22.157  24.530  0.00  0.00    -0.004 A 
ATOM     22  C   UNL d   1     -28.810  21.693  25.845  0.00  0.00     0.045 A 
ATOM     23  C   UNL d   1     -29.989  21.278  26.434  0.00  0.00     0.024 A 
ATOM     24 CL   UNL d   1     -27.325  21.642  26.742  0.00  0.00    -0.083 Cl
ATOM     25  C   UNL d   1     -31.172  21.314  25.718  0.00  0.00     0.002 A 
ATOM     26  C   UNL d   1     -31.183  21.768  24.411  0.00  0.00     0.001 A 
ATOM     27  C   UNL d   1     -30.012  22.190  23.815  0.00  0.00     0.014 A 
ENDBRANCH  14  21
ENDBRANCH   9  11
ENDBRANCH   1   7
TORSDOF 5
ENDMDL
