MODEL 1
REMARK VINA RESULT:      -9.7      0.000      0.000
REMARK  11 active torsions:
REMARK  status: ('A' for Active; 'I' for Inactive)
REMARK    1  A    between atoms: C_2  and  C_17 
REMARK    2  A    between atoms: C_3  and  C_4 
REMARK    3  A    between atoms: C_4  and  C_5 
REMARK    4  A    between atoms: C_6  and  O_7 
REMARK    5  A    between atoms: C_12  and  C_13 
REMARK    6  A    between atoms: C_15  and  O_16 
REMARK    7  A    between atoms: C_17  and  C_18 
REMARK    8  A    between atoms: C_18  and  C_19 
REMARK    9  A    between atoms: C_20  and  C_22 
REMARK   10  A    between atoms: C_22  and  C_23 
REMARK   11  A    between atoms: C_23  and  C_24 
ROOT
ATOM      1  C   UNL d   1     -24.356  22.637  19.183  0.00  0.00     0.043 C 
ATOM      2  C   UNL d   1     -24.405  22.458  20.678  0.00  0.00    -0.087 C 
ATOM      3  C   UNL d   1     -23.832  23.338  21.463  0.00  0.00    -0.020 C 
ENDROOT
BRANCH   3   4
ATOM      4  C   UNL d   1     -23.048  24.479  20.868  0.00  0.00     0.072 C 
BRANCH   4   5
ATOM      5  C   UNL d   1     -22.163  25.086  21.927  0.00  0.00     0.014 A 
ATOM      6  C   UNL d   1     -20.786  25.032  21.793  0.00  0.00     0.088 A 
ATOM      7  C   UNL d   1     -19.969  25.606  22.784  0.00  0.00     0.043 A 
ATOM      8  C   UNL d   1     -20.557  26.221  23.898  0.00  0.00    -0.021 A 
ATOM      9  C   UNL d   1     -21.916  26.261  24.019  0.00  0.00     0.074 A 
ATOM     10  C   UNL d   1     -19.687  26.837  24.963  0.00  0.00     0.051 C 
ATOM     11  C   UNL d   1     -22.728  25.693  23.039  0.00  0.00     0.097 A 
ATOM     12 CL   UNL d   1     -22.637  27.024  25.402  0.00  0.00    -0.081 Cl
BRANCH   6  13
ATOM     13  O   UNL d   1     -20.229  24.435  20.711  0.00  0.00    -0.359 OA
ATOM     14  H   UNL d   1     -19.289  24.627  20.596  0.00  0.00     0.217 HD
ENDBRANCH   6  13
BRANCH   7  15
ATOM     15  C   UNL d   1     -18.511  25.561  22.651  0.00  0.00     0.273 C 
ATOM     16  O   UNL d   1     -17.972  24.568  22.209  0.00  0.00    -0.301 OA
ENDBRANCH   7  15
BRANCH  11  17
ATOM     17  O   UNL d   1     -24.077  25.739  23.172  0.00  0.00    -0.358 OA
ATOM     18  H   UNL d   1     -24.554  25.185  22.539  0.00  0.00     0.217 HD
ENDBRANCH  11  17
ENDBRANCH   4   5
ENDBRANCH   3   4
BRANCH   2  19
ATOM     19  C   UNL d   1     -25.113  21.268  21.272  0.00  0.00     0.037 C 
BRANCH  19  20
ATOM     20  C   UNL d   1     -26.265  21.748  22.156  0.00  0.00     0.031 C 
BRANCH  20  21
ATOM     21  C   UNL d   1     -27.530  21.816  21.340  0.00  0.00    -0.024 C 
ATOM     22  C   UNL d   1     -28.638  22.256  21.882  0.00  0.00    -0.087 C 
ATOM     23  C   UNL d   1     -28.622  22.803  23.287  0.00  0.00     0.043 C 
BRANCH  22  24
ATOM     24  C   UNL d   1     -29.927  22.216  21.104  0.00  0.00     0.036 C 
BRANCH  24  25
ATOM     25  C   UNL d   1     -31.109  22.292  22.072  0.00  0.00     0.039 C 
BRANCH  25  26
ATOM     26  C   UNL d   1     -32.384  21.843  21.356  0.00  0.00     0.156 A 
ATOM     27  C   UNL d   1     -33.392  21.008  22.150  0.00  0.00     0.080 A 
ATOM     28  O   UNL d   1     -33.629  22.376  21.813  0.00  0.00    -0.370 OA
ATOM     29  C   UNL d   1     -34.186  19.941  21.393  0.00  0.00     0.048 C 
ATOM     30  C   UNL d   1     -33.054  20.678  23.605  0.00  0.00     0.048 C 
ENDBRANCH  25  26
ENDBRANCH  24  25
ENDBRANCH  22  24
ENDBRANCH  20  21
ENDBRANCH  19  20
ENDBRANCH   2  19
TORSDOF 11
ENDMDL
