MODEL 1
REMARK VINA RESULT:      -9.9      0.000      0.000
REMARK  8 active torsions:
REMARK  status: ('A' for Active; 'I' for Inactive)
REMARK    1  A    between atoms: C_4  and  C_5 
REMARK    2  A    between atoms: C_5  and  C_6 
REMARK    3  A    between atoms: C_7  and  O_8 
REMARK    4  A    between atoms: C_11  and  C_12 
REMARK    5  A    between atoms: C_12  and  C_14 
REMARK    6  A    between atoms: C_15  and  C_16 
REMARK    7  A    between atoms: C_19  and  O_20 
REMARK    8  A    between atoms: C_23  and  O_24 
ROOT
ATOM      1  C   UNL d   1     -31.168  21.929  24.271  0.00  0.00     0.013 A 
ATOM      2  C   UNL d   1     -30.969  21.583  25.599  0.00  0.00     0.075 A 
ATOM      3  C   UNL d   1     -29.679  21.419  26.096  0.00  0.00     0.038 A 
ATOM      4  C   UNL d   1     -28.591  21.610  25.275  0.00  0.00     0.021 A 
ATOM      5  C   UNL d   1     -28.780  21.964  23.935  0.00  0.00     0.048 A 
ATOM      6  C   UNL d   1     -30.082  22.123  23.435  0.00  0.00     0.089 A 
ENDROOT
BRANCH   5   7
ATOM      7  C   UNL d   1     -27.617  22.168  23.053  0.00  0.00     0.184 C 
ATOM      8  O   UNL d   1     -27.501  21.505  22.037  0.00  0.00    -0.287 OA
BRANCH   7   9
ATOM      9  C   UNL d   1     -26.605  23.163  23.396  0.00  0.00     0.056 C 
ATOM     10  C   UNL d   1     -25.342  23.031  22.932  0.00  0.00     0.015 C 
BRANCH  10  11
ATOM     11  C   UNL d   1     -24.324  24.033  23.278  0.00  0.00    -0.036 A 
ATOM     12  C   UNL d   1     -24.689  25.373  23.456  0.00  0.00     0.014 A 
ATOM     13  C   UNL d   1     -23.731  26.308  23.780  0.00  0.00     0.037 A 
ATOM     14  C   UNL d   1     -22.404  25.922  23.929  0.00  0.00     0.065 A 
ATOM     15  C   UNL d   1     -22.036  24.593  23.752  0.00  0.00     0.037 A 
ATOM     16  C   UNL d   1     -22.986  23.650  23.435  0.00  0.00     0.014 A 
BRANCH  14  17
ATOM     17  O   UNL d   1     -21.463  26.848  24.248  0.00  0.00    -0.361 OA
ATOM     18  H   UNL d   1     -21.441  27.608  23.652  0.00  0.00     0.217 HD
ENDBRANCH  14  17
ENDBRANCH  10  11
ENDBRANCH   7   9
ENDBRANCH   5   7
BRANCH   6  19
ATOM     19  O   UNL d   1     -30.275  22.465  22.137  0.00  0.00    -0.359 OA
ATOM     20  H   UNL d   1     -29.728  23.206  21.840  0.00  0.00     0.217 HD
ENDBRANCH   6  19
BRANCH   1  21
ATOM     21  C   UNL d   1     -32.567  22.099  23.738  0.00  0.00     0.071 C 
BRANCH  21  22
ATOM     22  C   UNL d   1     -33.057  20.786  23.184  0.00  0.00    -0.020 C 
ATOM     23  C   UNL d   1     -33.631  20.745  22.007  0.00  0.00    -0.091 C 
ATOM     24  C   UNL d   1     -34.003  19.419  21.396  0.00  0.00     0.042 C 
ATOM     25  C   UNL d   1     -33.927  22.026  21.269  0.00  0.00     0.042 C 
ENDBRANCH  21  22
ENDBRANCH   1  21
BRANCH   2  26
ATOM     26  O   UNL d   1     -32.036  21.399  26.418  0.00  0.00    -0.360 OA
ATOM     27  H   UNL d   1     -31.911  21.751  27.310  0.00  0.00     0.217 HD
ENDBRANCH   2  26
TORSDOF 8
ENDMDL
