MODEL 1
REMARK VINA RESULT:      -8.4      0.000      0.000
REMARK  6 active torsions:
REMARK  status: ('A' for Active; 'I' for Inactive)
REMARK    1  A    between atoms: C_8  and  N_9 
REMARK       I    between atoms: N_9  and  C_10 
REMARK    2  A    between atoms: C_10  and  C_12 
REMARK    3  A    between atoms: C_16  and  N_17 
REMARK    4  A    between atoms: C_28  and  O_29 
REMARK    5  A    between atoms: O_29  and  C_30 
REMARK    6  A    between atoms: C_30  and  C_32 
ROOT
ATOM      1  C   UNL d   1     -18.962  25.522  23.566  0.00  0.00     0.068 A 
ATOM      2  C   UNL d   1     -19.336  25.061  22.298  0.00  0.00     0.064 A 
ATOM      3  C   UNL d   1     -20.582  24.506  22.109  0.00  0.00     0.146 A 
ATOM      4  F   UNL d   1     -20.940  24.056  20.886  0.00  0.00    -0.204 F 
ATOM      5  C   UNL d   1     -21.477  24.412  23.174  0.00  0.00     0.104 A 
ATOM      6  C   UNL d   1     -21.117  24.872  24.433  0.00  0.00     0.073 A 
ATOM      7  C   UNL d   1     -19.864  25.426  24.635  0.00  0.00     0.087 A 
ENDROOT
BRANCH   1   8
ATOM      8  C   UNL d   1     -17.629  26.110  23.773  0.00  0.00     0.259 C 
ATOM      9  N   UNL d   1     -17.505  27.291  24.412  0.00  0.00    -0.320 N 
ATOM     10  H   UNL d   1     -18.284  27.713  24.807  0.00  0.00     0.169 HD
ATOM     11  O   UNL d   1     -16.639  25.531  23.369  0.00  0.00    -0.267 OA
BRANCH   9  12
ATOM     12  C   UNL d   1     -16.252  27.908  24.506  0.00  0.00     0.080 A 
ATOM     13  C   UNL d   1     -15.496  27.775  25.662  0.00  0.00    -0.032 A 
ATOM     14  C   UNL d   1     -16.024  26.967  26.819  0.00  0.00     0.050 C 
ATOM     15  C   UNL d   1     -14.257  28.381  25.749  0.00  0.00     0.009 A 
ATOM     16  C   UNL d   1     -13.774  29.128  24.691  0.00  0.00     0.004 A 
ATOM     17  C   UNL d   1     -14.524  29.264  23.536  0.00  0.00     0.045 A 
ATOM     18  C   UNL d   1     -15.762  28.656  23.440  0.00  0.00     0.143 A 
ATOM     19  F   UNL d   1     -16.494  28.787  22.312  0.00  0.00    -0.204 F 
ENDBRANCH   9  12
ENDBRANCH   1   8
BRANCH   7  20
ATOM     20  O   UNL d   1     -19.510  25.876  25.866  0.00  0.00    -0.345 OA
BRANCH  20  21
ATOM     21  C   UNL d   1     -20.537  26.476  26.658  0.00  0.00     0.129 C 
ATOM     22  C   UNL d   1     -20.327  26.108  28.128  0.00  0.00     0.040 C 
BRANCH  21  23
ATOM     23  C   UNL d   1     -20.482  27.996  26.499  0.00  0.00     0.015 C 
ATOM     24  C   UNL d   1     -21.729  28.620  27.129  0.00  0.00     0.007 C 
ATOM     25  C   UNL d   1     -21.674  30.141  26.970  0.00  0.00     0.000 C 
ATOM     26  C   UNL d   1     -20.425  30.682  27.670  0.00  0.00     0.000 C 
ATOM     27  C   UNL d   1     -19.178  30.058  27.041  0.00  0.00     0.000 C 
ATOM     28  C   UNL d   1     -19.233  28.537  27.200  0.00  0.00     0.007 C 
ENDBRANCH  21  23
ENDBRANCH  20  21
ENDBRANCH   7  20
BRANCH   5  29
ATOM     29  N   UNL d   1     -22.742  23.853  22.973  0.00  0.00    -0.178 N 
ATOM     30  C   UNL d   1     -23.922  24.382  23.365  0.00  0.00     0.351 A 
ATOM     31  N   UNL d   1     -24.890  23.547  22.956  0.00  0.00    -0.284 N 
ATOM     32  O   UNL d   1     -24.078  25.423  23.975  0.00  0.00    -0.244 OA
ATOM     33  C   UNL d   1     -24.298  22.466  22.333  0.00  0.00     0.131 A 
ATOM     34  C   UNL d   1     -26.340  23.722  23.097  0.00  0.00     0.135 C 
ATOM     35  N   UNL d   1     -23.020  22.642  22.323  0.00  0.00    -0.149 NA
ATOM     36  C   UNL d   1     -25.068  21.289  21.783  0.00  0.00     0.081 C 
ATOM     37  C   UNL d   1     -26.533  21.717  21.615  0.00  0.00     0.009 C 
ATOM     38  C   UNL d   1     -27.018  22.360  22.918  0.00  0.00     0.021 C 
ENDBRANCH   5  29
TORSDOF 6
ENDMDL
