MODEL 1
REMARK VINA RESULT:     -10.4      0.000      0.000
REMARK  5 active torsions:
REMARK  status: ('A' for Active; 'I' for Inactive)
REMARK    1  A    between atoms: C_2  and  O_3 
REMARK    2  A    between atoms: C_2  and  C_4 
REMARK    3  A    between atoms: C_10  and  N_11 
REMARK    4  A    between atoms: N_11  and  C_12 
REMARK    5  A    between atoms: C_16  and  C_17 
ROOT
ATOM      1  C   UNL d   1     -27.048  22.638  23.708  0.00  0.00     0.112 A 
ATOM      2  C   UNL d   1     -26.474  23.822  24.162  0.00  0.00     0.146 A 
ATOM      3  F   UNL d   1     -27.054  24.512  25.167  0.00  0.00    -0.204 F 
ATOM      4  C   UNL d   1     -25.308  24.289  23.586  0.00  0.00     0.057 A 
ATOM      5  C   UNL d   1     -24.713  23.579  22.545  0.00  0.00    -0.020 A 
ATOM      6  C   UNL d   1     -25.292  22.396  22.088  0.00  0.00     0.057 A 
ATOM      7  C   UNL d   1     -26.455  21.929  22.668  0.00  0.00     0.146 A 
ATOM      8  F   UNL d   1     -27.017  20.783  22.226  0.00  0.00    -0.204 F 
ENDROOT
BRANCH   1   9
ATOM      9  N   UNL d   1     -28.227  22.164  24.294  0.00  0.00    -0.335 N 
ATOM     10  H   UNL d   1     -28.221  21.852  25.212  0.00  0.00     0.168 HD
BRANCH   9  11
ATOM     11  C   UNL d   1     -29.401  22.140  23.562  0.00  0.00     0.144 A 
ATOM     12  C   UNL d   1     -30.601  21.748  24.180  0.00  0.00     0.085 A 
ATOM     13  C   UNL d   1     -31.777  21.732  23.420  0.00  0.00     0.047 A 
ATOM     14  C   UNL d   1     -31.705  22.104  22.089  0.00  0.00     0.052 A 
ATOM     15 CL   UNL d   1     -33.132  22.102  21.101  0.00  0.00    -0.083 Cl
ATOM     16  C   UNL d   1     -30.484  22.479  21.552  0.00  0.00     0.142 A 
ATOM     17  N   UNL d   1     -29.388  22.482  22.284  0.00  0.00    -0.240 NA
BRANCH  12  18
ATOM     18  C   UNL d   1     -30.622  21.361  25.602  0.00  0.00     0.180 C 
ATOM     19  O   UNL d   1     -31.276  22.006  26.396  0.00  0.00    -0.646 OA
BRANCH  18  20
ATOM     20  O   UNL d   1     -29.914  20.292  26.020  0.00  0.00    -0.773 OA
ATOM     21  H   UNL d   1     -29.915  19.514  25.446  0.00  0.00     0.167 HD
ENDBRANCH  18  20
ENDBRANCH  12  18
ENDBRANCH   9  11
ENDBRANCH   1   9
BRANCH   5  22
ATOM     22  C   UNL d   1     -23.463  24.082  21.923  0.00  0.00    -0.026 A 
ATOM     23  C   UNL d   1     -23.231  23.887  20.563  0.00  0.00     0.012 A 
ATOM     24  C   UNL d   1     -22.067  24.358  19.989  0.00  0.00     0.001 A 
ATOM     25  C   UNL d   1     -21.132  25.022  20.762  0.00  0.00     0.000 A 
ATOM     26  C   UNL d   1     -21.357  25.219  22.113  0.00  0.00     0.001 A 
ATOM     27  C   UNL d   1     -22.520  24.757  22.696  0.00  0.00     0.012 A 
ENDBRANCH   5  22
TORSDOF 5
ENDMDL
