MODEL 1
REMARK VINA RESULT:     -12.8      0.000      0.000
REMARK  5 active torsions:
REMARK  status: ('A' for Active; 'I' for Inactive)
REMARK       I    between atoms: C_2  and  N_3 
REMARK    1  A    between atoms: C_2  and  C_21 
REMARK    2  A    between atoms: N_3  and  C_4 
REMARK    3  A    between atoms: C_9  and  C_10 
REMARK    4  A    between atoms: C_14  and  O_15 
REMARK    5  A    between atoms: C_22  and  O_23 
ROOT
ATOM      1  C   UNL d   1     -26.870  22.283  23.111  0.00  0.00     0.119 A 
ATOM      2  C   UNL d   1     -26.246  21.692  22.017  0.00  0.00     0.185 A 
ATOM      3  F   UNL d   1     -26.852  20.680  21.359  0.00  0.00    -0.200 F 
ATOM      4  C   UNL d   1     -25.007  22.144  21.599  0.00  0.00     0.171 A 
ATOM      5  F   UNL d   1     -24.404  21.573  20.534  0.00  0.00    -0.202 F 
ATOM      6  C   UNL d   1     -24.380  23.186  22.283  0.00  0.00     0.058 A 
ATOM      7  C   UNL d   1     -25.007  23.773  23.383  0.00  0.00     0.171 A 
ATOM      8  F   UNL d   1     -24.401  24.783  24.047  0.00  0.00    -0.202 F 
ATOM      9  C   UNL d   1     -26.247  23.321  23.793  0.00  0.00     0.185 A 
ATOM     10  F   UNL d   1     -26.853  23.889  24.859  0.00  0.00    -0.200 F 
ENDROOT
BRANCH   1  11
ATOM     11  N   UNL d   1     -28.126  21.826  23.529  0.00  0.00    -0.317 N 
ATOM     12  C   UNL d   1     -29.246  22.409  23.056  0.00  0.00     0.263 C 
ATOM     13  O   UNL d   1     -29.169  23.269  22.198  0.00  0.00    -0.267 OA
ATOM     14  H   UNL d   1     -28.190  21.088  24.154  0.00  0.00     0.169 HD
BRANCH  12  15
ATOM     15  C   UNL d   1     -30.554  22.008  23.576  0.00  0.00     0.115 A 
ATOM     16  C   UNL d   1     -31.742  21.853  22.833  0.00  0.00     0.078 A 
ATOM     17  N   UNL d   1     -32.714  21.468  23.712  0.00  0.00    -0.242 N 
ATOM     18  C   UNL d   1     -32.043  22.015  21.475  0.00  0.00     0.033 A 
ATOM     19  N   UNL d   1     -32.140  21.391  24.987  0.00  0.00    -0.141 NA
ATOM     20  C   UNL d   1     -33.981  21.239  23.269  0.00  0.00     0.119 A 
ATOM     21  C   UNL d   1     -30.869  21.707  24.917  0.00  0.00     0.200 A 
ATOM     22  C   UNL d   1     -34.297  21.396  21.964  0.00  0.00     0.019 A 
ATOM     23  C   UNL d   1     -33.316  21.787  21.042  0.00  0.00     0.004 A 
BRANCH  21  24
ATOM     24  O   UNL d   1     -30.002  21.740  25.962  0.00  0.00    -0.343 OA
ATOM     25  H   UNL d   1     -30.190  21.086  26.649  0.00  0.00     0.219 HD
ENDBRANCH  21  24
ENDBRANCH  12  15
ENDBRANCH   1  11
BRANCH   6  26
ATOM     26  C   UNL d   1     -23.050  23.670  21.840  0.00  0.00    -0.017 A 
ATOM     27  C   UNL d   1     -22.925  24.375  20.644  0.00  0.00     0.049 A 
ATOM     28  C   UNL d   1     -21.680  24.828  20.239  0.00  0.00     0.066 A 
ATOM     29  C   UNL d   1     -20.560  24.571  21.017  0.00  0.00     0.036 A 
ATOM     30  C   UNL d   1     -20.682  23.865  22.200  0.00  0.00     0.004 A 
ATOM     31  C   UNL d   1     -21.919  23.415  22.615  0.00  0.00     0.012 A 
BRANCH  28  32
ATOM     32  O   UNL d   1     -21.556  25.522  19.077  0.00  0.00    -0.361 OA
ATOM     33  H   UNL d   1     -22.399  25.747  18.662  0.00  0.00     0.217 HD
ENDBRANCH  28  32
ENDBRANCH   6  26
TORSDOF 5
ENDMDL
