MODEL 1
REMARK VINA RESULT:      -8.9      0.000      0.000
REMARK  9 active torsions:
REMARK  status: ('A' for Active; 'I' for Inactive)
REMARK    1  A    between atoms: C_2  and  C_3 
REMARK    2  A    between atoms: N_5  and  C_6 
REMARK    3  A    between atoms: C_8  and  O_9 
REMARK    4  A    between atoms: O_9  and  C_10 
REMARK    5  A    between atoms: C_10  and  C_12 
REMARK    6  A    between atoms: C_17  and  C_18 
REMARK       I    between atoms: C_18  and  N_20 
REMARK    7  A    between atoms: N_20  and  C_21 
REMARK    8  A    between atoms: C_21  and  C_22 
REMARK    9  A    between atoms: C_21  and  C_24 
ROOT
ATOM      1  C   UNL d   1     -27.022  23.029  24.050  0.00  0.00     0.104 A 
ATOM      2  C   UNL d   1     -27.960  22.484  23.182  0.00  0.00     0.073 A 
ATOM      3  C   UNL d   1     -29.122  21.924  23.681  0.00  0.00     0.087 A 
ATOM      4  C   UNL d   1     -29.353  21.911  25.065  0.00  0.00     0.068 A 
ATOM      5  C   UNL d   1     -28.400  22.455  25.932  0.00  0.00     0.064 A 
ATOM      6  C   UNL d   1     -27.247  23.011  25.426  0.00  0.00     0.146 A 
ATOM      7  F   UNL d   1     -26.331  23.542  26.265  0.00  0.00    -0.204 F 
ENDROOT
BRANCH   1   8
ATOM      8  N   UNL d   1     -25.851  23.594  23.543  0.00  0.00    -0.178 N 
ATOM      9  N   UNL d   1     -25.403  24.906  23.751  0.00  0.00    -0.149 NA
ATOM     10  C   UNL d   1     -24.282  25.053  23.122  0.00  0.00     0.130 A 
ATOM     11  N   UNL d   1     -23.965  23.872  22.498  0.00  0.00    -0.289 N 
ATOM     12  C   UNL d   1     -24.936  22.977  22.767  0.00  0.00     0.351 A 
ATOM     13  C   UNL d   1     -22.773  23.626  21.682  0.00  0.00     0.162 C 
ATOM     14  O   UNL d   1     -24.980  21.823  22.379  0.00  0.00    -0.244 OA
BRANCH  10  15
ATOM     15  C   UNL d   1     -23.458  26.315  23.082  0.00  0.00     0.076 C 
ATOM     16  C   UNL d   1     -22.407  26.273  24.195  0.00  0.00     0.013 C 
ENDBRANCH  10  15
ENDBRANCH   1   8
BRANCH   3  17
ATOM     17  O   UNL d   1     -30.040  21.392  22.833  0.00  0.00    -0.345 OA
BRANCH  17  18
ATOM     18  C   UNL d   1     -30.953  22.299  22.215  0.00  0.00     0.129 C 
ATOM     19  C   UNL d   1     -30.552  22.510  20.754  0.00  0.00     0.040 C 
BRANCH  18  20
ATOM     20  C   UNL d   1     -32.368  21.718  22.276  0.00  0.00     0.015 C 
ATOM     21  C   UNL d   1     -33.261  22.599  23.167  0.00  0.00     0.007 C 
ATOM     22  C   UNL d   1     -34.408  23.112  22.272  0.00  0.00     0.000 C 
ATOM     23  C   UNL d   1     -34.492  22.072  21.128  0.00  0.00     0.000 C 
ATOM     24  C   UNL d   1     -33.003  21.726  20.870  0.00  0.00     0.007 C 
ENDBRANCH  18  20
ENDBRANCH  17  18
ENDBRANCH   3  17
BRANCH   4  25
ATOM     25  C   UNL d   1     -30.591  21.320  25.603  0.00  0.00     0.254 C 
ATOM     26  O   UNL d   1     -31.270  21.947  26.394  0.00  0.00    -0.268 OA
ATOM     27  N   UNL d   1     -30.971  20.086  25.218  0.00  0.00    -0.352 N 
ATOM     28  H   UNL d   1     -30.430  19.586  24.588  0.00  0.00     0.163 HD
BRANCH  27  29
ATOM     29  C   UNL d   1     -32.203  19.500  25.752  0.00  0.00     0.084 C 
BRANCH  29  30
ATOM     30  C   UNL d   1     -33.307  19.582  24.696  0.00  0.00     0.021 C 
ATOM     31  C   UNL d   1     -34.606  20.055  25.352  0.00  0.00     0.007 C 
ENDBRANCH  29  30
BRANCH  29  32
ATOM     32  C   UNL d   1     -31.954  18.035  26.116  0.00  0.00     0.021 C 
ATOM     33  C   UNL d   1     -30.607  17.908  26.829  0.00  0.00     0.007 C 
ENDBRANCH  29  32
ENDBRANCH  27  29
ENDBRANCH   4  25
TORSDOF 9
ENDMDL
