MODEL 1
REMARK VINA RESULT:      -8.4      0.000      0.000
REMARK  8 active torsions:
REMARK  status: ('A' for Active; 'I' for Inactive)
REMARK    1  A    between atoms: C_2  and  C_4 
REMARK    2  A    between atoms: C_4  and  C_5 
REMARK    3  A    between atoms: C_5  and  O_7 
REMARK    4  A    between atoms: O_7  and  C_8 
REMARK    5  A    between atoms: C_10  and  N_11 
REMARK    6  A    between atoms: C_13  and  C_14 
REMARK    7  A    between atoms: C_24  and  C_25 
REMARK       I    between atoms: C_25  and  N_27 
REMARK    8  A    between atoms: N_27  and  C_28 
ROOT
ATOM      1  C   UNL d   1     -28.983  22.024  23.770  0.00  0.00     0.087 A 
ATOM      2  C   UNL d   1     -27.877  22.713  23.303  0.00  0.00     0.073 A 
ATOM      3  C   UNL d   1     -26.925  23.187  24.195  0.00  0.00     0.104 A 
ATOM      4  C   UNL d   1     -27.082  22.978  25.566  0.00  0.00     0.146 A 
ATOM      5  F   UNL d   1     -26.155  23.447  26.429  0.00  0.00    -0.204 F 
ATOM      6  C   UNL d   1     -28.181  22.298  26.041  0.00  0.00     0.064 A 
ATOM      7  C   UNL d   1     -29.142  21.814  25.148  0.00  0.00     0.068 A 
ENDROOT
BRANCH   3   8
ATOM      8  N   UNL d   1     -25.809  23.879  23.720  0.00  0.00    -0.178 N 
ATOM      9  C   UNL d   1     -25.515  25.176  23.951  0.00  0.00     0.351 A 
ATOM     10  N   UNL d   1     -24.359  25.446  23.312  0.00  0.00    -0.288 N 
ATOM     11  O   UNL d   1     -26.174  25.958  24.613  0.00  0.00    -0.244 OA
ATOM     12  C   UNL d   1     -23.931  24.301  22.688  0.00  0.00     0.134 A 
ATOM     13  C   UNL d   1     -23.673  26.741  23.293  0.00  0.00     0.162 C 
ATOM     14  N   UNL d   1     -24.785  23.355  22.920  0.00  0.00    -0.149 NA
BRANCH  12  15
ATOM     15  C   UNL d   1     -22.675  24.165  21.867  0.00  0.00     0.049 C 
ATOM     16  C   UNL d   1     -21.649  23.334  22.638  0.00  0.00     0.018 C 
ATOM     17  C   UNL d   1     -23.003  23.471  20.542  0.00  0.00     0.018 C 
ENDBRANCH  12  15
ENDBRANCH   3   8
BRANCH   1  18
ATOM     18  O   UNL d   1     -29.912  21.557  22.898  0.00  0.00    -0.345 OA
BRANCH  18  19
ATOM     19  C   UNL d   1     -30.805  22.515  22.326  0.00  0.00     0.125 C 
ATOM     20  C   UNL d   1     -30.840  22.335  20.807  0.00  0.00     0.040 C 
BRANCH  19  21
ATOM     21  C   UNL d   1     -32.208  22.308  22.898  0.00  0.00     0.035 C 
BRANCH  21  22
ATOM     22  C   UNL d   1     -33.097  21.648  21.842  0.00  0.00    -0.020 C 
ATOM     23  C   UNL d   1     -33.530  20.265  22.332  0.00  0.00     0.009 C 
ATOM     24  C   UNL d   1     -34.333  22.515  21.601  0.00  0.00     0.009 C 
ENDBRANCH  21  22
ENDBRANCH  19  21
ENDBRANCH  18  19
ENDBRANCH   1  18
BRANCH   7  25
ATOM     25  C   UNL d   1     -30.319  21.085  25.653  0.00  0.00     0.261 C 
ATOM     26  O   UNL d   1     -31.054  21.608  26.468  0.00  0.00    -0.267 OA
ATOM     27  N   UNL d   1     -30.580  19.840  25.210  0.00  0.00    -0.286 N 
ATOM     28  H   UNL d   1     -29.994  19.423  24.559  0.00  0.00     0.172 HD
BRANCH  27  29
ATOM     29  C   UNL d   1     -31.686  19.154  25.684  0.00  0.00     0.253 A 
ATOM     30  O   UNL d   1     -32.965  19.540  25.550  0.00  0.00    -0.289 OA
ATOM     31  C   UNL d   1     -33.741  18.607  26.141  0.00  0.00     0.165 A 
ATOM     32  C   UNL d   1     -32.925  17.666  26.637  0.00  0.00     0.145 A 
ATOM     33  N   UNL d   1     -31.659  18.023  26.345  0.00  0.00    -0.219 NA
ENDBRANCH  27  29
ENDBRANCH   7  25
TORSDOF 8
ENDMDL
