MODEL 1
REMARK VINA RESULT:      -9.7      0.000      0.000
REMARK  9 active torsions:
REMARK  status: ('A' for Active; 'I' for Inactive)
REMARK    1  A    between atoms: C_2  and  C_3 
REMARK    2  A    between atoms: C_3  and  C_4 
REMARK    3  A    between atoms: C_4  and  O_6 
REMARK    4  A    between atoms: O_6  and  C_7 
REMARK    5  A    between atoms: C_9  and  N_10 
REMARK    6  A    between atoms: C_12  and  C_13 
REMARK    7  A    between atoms: C_22  and  C_23 
REMARK       I    between atoms: C_23  and  N_25 
REMARK    8  A    between atoms: N_25  and  C_26 
REMARK    9  A    between atoms: C_32  and  N_33 
ROOT
ATOM      1  C   UNL d   1     -26.861  22.959  23.030  0.00  0.00     0.087 A 
ATOM      2  C   UNL d   1     -28.233  22.810  23.131  0.00  0.00     0.073 A 
ATOM      3  C   UNL d   1     -28.924  22.073  22.179  0.00  0.00     0.104 A 
ATOM      4  C   UNL d   1     -28.241  21.481  21.118  0.00  0.00     0.146 A 
ATOM      5  F   UNL d   1     -28.920  20.761  20.197  0.00  0.00    -0.204 F 
ATOM      6  C   UNL d   1     -26.875  21.623  21.008  0.00  0.00     0.064 A 
ATOM      7  C   UNL d   1     -26.171  22.364  21.963  0.00  0.00     0.068 A 
ENDROOT
BRANCH   7   8
ATOM      8  C   UNL d   1     -24.712  22.519  21.849  0.00  0.00     0.259 C 
ATOM      9  O   UNL d   1     -24.017  21.561  21.568  0.00  0.00    -0.267 OA
ATOM     10  N   UNL d   1     -24.144  23.724  22.058  0.00  0.00    -0.320 N 
ATOM     11  H   UNL d   1     -24.693  24.480  22.320  0.00  0.00     0.169 HD
BRANCH  10  12
ATOM     12  C   UNL d   1     -22.762  23.885  21.894  0.00  0.00     0.067 A 
ATOM     13  C   UNL d   1     -22.247  24.317  20.671  0.00  0.00     0.053 A 
ATOM     14  C   UNL d   1     -20.878  24.474  20.516  0.00  0.00     0.031 A 
ATOM     15  C   UNL d   1     -20.028  24.204  21.572  0.00  0.00     0.003 A 
ATOM     16  C   UNL d   1     -20.538  23.777  22.784  0.00  0.00     0.009 A 
ATOM     17  C   UNL d   1     -21.901  23.621  22.949  0.00  0.00    -0.033 A 
ATOM     18  C   UNL d   1     -22.452  23.160  24.274  0.00  0.00     0.050 C 
BRANCH  13  19
ATOM     19  N   UNL d   1     -23.110  24.589  19.604  0.00  0.00    -0.397 N 
ATOM     20  H   UNL d   1     -24.067  24.478  19.714  0.00  0.00     0.156 HD
ATOM     21  H   UNL d   1     -22.751  24.889  18.754  0.00  0.00     0.156 HD
ENDBRANCH  13  19
ENDBRANCH  10  12
ENDBRANCH   7   8
BRANCH   1  22
ATOM     22  O   UNL d   1     -26.184  23.679  23.961  0.00  0.00    -0.345 OA
BRANCH  22  23
ATOM     23  C   UNL d   1     -26.888  24.016  25.158  0.00  0.00     0.128 C 
ATOM     24  C   UNL d   1     -26.425  25.387  25.653  0.00  0.00     0.040 C 
BRANCH  23  25
ATOM     25  C   UNL d   1     -26.601  22.962  26.230  0.00  0.00     0.058 C 
BRANCH  25  26
ATOM     26  C   UNL d   1     -27.892  22.563  26.899  0.00  0.00    -0.034 C 
ATOM     27  C   UNL d   1     -28.680  21.685  26.331  0.00  0.00     0.007 C 
ENDBRANCH  25  26
ENDBRANCH  23  25
ENDBRANCH  22  23
ENDBRANCH   1  22
BRANCH   3  28
ATOM     28  N   UNL d   1     -30.309  21.925  22.284  0.00  0.00    -0.178 N 
ATOM     29  C   UNL d   1     -31.213  22.145  21.307  0.00  0.00     0.351 A 
ATOM     30  N   UNL d   1     -32.433  21.885  21.819  0.00  0.00    -0.289 N 
ATOM     31  O   UNL d   1     -30.972  22.509  20.169  0.00  0.00    -0.244 OA
ATOM     32  C   UNL d   1     -32.278  21.509  23.131  0.00  0.00     0.130 A 
ATOM     33  C   UNL d   1     -33.705  21.993  21.102  0.00  0.00     0.162 C 
ATOM     34  N   UNL d   1     -31.019  21.527  23.425  0.00  0.00    -0.149 NA
BRANCH  32  35
ATOM     35  C   UNL d   1     -33.394  21.136  24.073  0.00  0.00     0.076 C 
ATOM     36  C   UNL d   1     -32.883  20.111  25.087  0.00  0.00     0.013 C 
ENDBRANCH  32  35
ENDBRANCH   3  28
TORSDOF 9
ENDMDL
