MODEL 1
REMARK VINA RESULT:      -9.1      0.000      0.000
REMARK  4 active torsions:
REMARK  status: ('A' for Active; 'I' for Inactive)
REMARK    1  A    between atoms: C_2  and  C_4 
REMARK    2  A    between atoms: C_6  and  N_7 
REMARK    3  A    between atoms: N_7  and  C_8 
REMARK    4  A    between atoms: C_13  and  C_14 
ROOT
ATOM      1  C   UNL d   1     -29.226  22.489  23.453  0.00  0.00     0.035 A 
ATOM      2  C   UNL d   1     -29.274  22.744  22.089  0.00  0.00     0.031 A 
ATOM      3  C   UNL d   1     -30.439  22.515  21.385  0.00  0.00     0.022 A 
ATOM      4  C   UNL d   1     -31.559  22.031  22.038  0.00  0.00     0.026 A 
ATOM      5 BR   UNL d   1     -33.154  21.718  21.070  0.00  0.00    -0.050 Br
ATOM      6  C   UNL d   1     -31.517  21.781  23.398  0.00  0.00     0.067 A 
ATOM      7  C   UNL d   1     -30.352  22.003  24.106  0.00  0.00     0.047 A 
ENDROOT
BRANCH   1   8
ATOM      8  N   UNL d   1     -28.047  22.720  24.169  0.00  0.00    -0.335 N 
ATOM      9  H   UNL d   1     -28.076  22.816  25.134  0.00  0.00     0.168 HD
BRANCH   8  10
ATOM     10  C   UNL d   1     -26.845  22.811  23.503  0.00  0.00     0.172 A 
ATOM     11  S   UNL d   1     -25.665  24.016  23.786  0.00  0.00    -0.046 SA
ATOM     12  C   UNL d   1     -24.627  23.308  22.551  0.00  0.00     0.078 A 
ATOM     13  C   UNL d   1     -25.279  22.213  22.034  0.00  0.00     0.054 A 
ATOM     14  N   UNL d   1     -26.446  21.988  22.574  0.00  0.00    -0.228 NA
ATOM     15  C   UNL d   1     -24.694  21.347  20.948  0.00  0.00     0.072 C 
BRANCH  12  16
ATOM     16  C   UNL d   1     -23.359  23.778  22.163  0.00  0.00     0.164 C 
ATOM     17  C   UNL d   1     -22.137  23.393  22.955  0.00  0.00     0.097 C 
ATOM     18  O   UNL d   1     -23.249  24.498  21.188  0.00  0.00    -0.292 OA
ENDBRANCH  12  16
ENDBRANCH   8  10
ENDBRANCH   1   8
BRANCH   6  19
ATOM     19  C   UNL d   1     -32.740  21.258  24.106  0.00  0.00     0.418 C 
ATOM     20  F   UNL d   1     -33.003  19.952  23.680  0.00  0.00    -0.166 F 
ATOM     21  F   UNL d   1     -32.516  21.263  25.487  0.00  0.00    -0.166 F 
ATOM     22  F   UNL d   1     -33.836  22.075  23.809  0.00  0.00    -0.166 F 
ENDBRANCH   6  19
TORSDOF 4
ENDMDL
