MODEL 1
REMARK VINA RESULT:     -10.3      0.000      0.000
REMARK  7 active torsions:
REMARK  status: ('A' for Active; 'I' for Inactive)
REMARK    1  A    between atoms: C_8  and  N_9 
REMARK       I    between atoms: N_9  and  C_10 
REMARK    2  A    between atoms: C_10  and  C_12 
REMARK    3  A    between atoms: C_16  and  N_17 
REMARK    4  A    between atoms: N_21  and  C_22 
REMARK    5  A    between atoms: C_28  and  O_29 
REMARK    6  A    between atoms: O_29  and  C_30 
REMARK    7  A    between atoms: C_30  and  C_32 
ROOT
ATOM      1  C   UNL d   1     -24.152  24.499  23.329  0.00  0.00     0.068 A 
ATOM      2  C   UNL d   1     -25.064  24.979  24.274  0.00  0.00     0.064 A 
ATOM      3  C   UNL d   1     -26.323  24.428  24.356  0.00  0.00     0.146 A 
ATOM      4  F   UNL d   1     -27.206  24.895  25.266  0.00  0.00    -0.204 F 
ATOM      5  C   UNL d   1     -26.689  23.386  23.505  0.00  0.00     0.104 A 
ATOM      6  C   UNL d   1     -25.788  22.900  22.568  0.00  0.00     0.073 A 
ATOM      7  C   UNL d   1     -24.521  23.450  22.473  0.00  0.00     0.087 A 
ENDROOT
BRANCH   1   8
ATOM      8  C   UNL d   1     -22.806  25.090  23.235  0.00  0.00     0.259 C 
ATOM      9  N   UNL d   1     -21.774  24.523  23.890  0.00  0.00    -0.320 N 
ATOM     10  H   UNL d   1     -21.899  23.681  24.356  0.00  0.00     0.169 HD
ATOM     11  O   UNL d   1     -22.626  26.090  22.566  0.00  0.00    -0.267 OA
BRANCH   9  12
ATOM     12  C   UNL d   1     -20.522  25.149  23.898  0.00  0.00     0.080 A 
ATOM     13  C   UNL d   1     -20.209  26.068  24.890  0.00  0.00    -0.032 A 
ATOM     14  C   UNL d   1     -21.219  26.395  25.960  0.00  0.00     0.050 C 
ATOM     15  C   UNL d   1     -18.970  26.679  24.899  0.00  0.00     0.009 A 
ATOM     16  C   UNL d   1     -18.045  26.385  23.915  0.00  0.00     0.004 A 
ATOM     17  C   UNL d   1     -18.350  25.469  22.925  0.00  0.00     0.045 A 
ATOM     18  C   UNL d   1     -19.587  24.849  22.913  0.00  0.00     0.143 A 
ATOM     19  F   UNL d   1     -19.886  23.954  21.945  0.00  0.00    -0.204 F 
ENDBRANCH   9  12
ENDBRANCH   1   8
BRANCH   7  20
ATOM     20  O   UNL d   1     -23.640  22.977  21.557  0.00  0.00    -0.336 OA
BRANCH  20  21
ATOM     21  C   UNL d   1     -23.758  23.478  20.224  0.00  0.00     0.232 C 
ATOM     22  C   UNL d   1     -22.375  23.874  19.703  0.00  0.00     0.049 C 
BRANCH  21  23
ATOM     23  C   UNL d   1     -24.352  22.393  19.323  0.00  0.00     0.413 C 
ATOM     24  F   UNL d   1     -24.486  22.889  18.022  0.00  0.00    -0.168 F 
ATOM     25  F   UNL d   1     -23.505  21.280  19.314  0.00  0.00    -0.168 F 
ATOM     26  F   UNL d   1     -25.609  22.018  19.812  0.00  0.00    -0.168 F 
ENDBRANCH  21  23
ENDBRANCH  20  21
ENDBRANCH   7  20
BRANCH   5  27
ATOM     27  N   UNL d   1     -27.966  22.827  23.596  0.00  0.00    -0.178 N 
ATOM     28  C   UNL d   1     -28.409  21.996  24.562  0.00  0.00     0.351 A 
ATOM     29  N   UNL d   1     -29.692  21.695  24.278  0.00  0.00    -0.280 N 
ATOM     30  O   UNL d   1     -27.768  21.594  25.516  0.00  0.00    -0.244 OA
ATOM     31  C   UNL d   1     -30.041  22.340  23.118  0.00  0.00     0.127 A 
ATOM     32  N   UNL d   1     -29.024  23.022  22.697  0.00  0.00    -0.149 NA
ATOM     33  C   UNL d   1     -31.388  22.270  22.446  0.00  0.00     0.093 C 
BRANCH  29  34
ATOM     34  C   UNL d   1     -30.562  20.821  25.069  0.00  0.00     0.096 A 
ATOM     35  C   UNL d   1     -30.512  20.963  26.591  0.00  0.00     0.028 A 
ATOM     36  C   UNL d   1     -31.729  21.473  25.814  0.00  0.00     0.028 A 
ENDBRANCH  29  34
ENDBRANCH   5  27
TORSDOF 7
ENDMDL
