MODEL 1
REMARK VINA RESULT:     -10.5      0.000      0.000
REMARK  7 active torsions:
REMARK  status: ('A' for Active; 'I' for Inactive)
REMARK    1  A    between atoms: C_2  and  N_3 
REMARK       I    between atoms: N_3  and  C_4 
REMARK    2  A    between atoms: C_4  and  C_6 
REMARK    3  A    between atoms: C_11  and  C_12 
REMARK    4  A    between atoms: C_12  and  C_13 
REMARK    5  A    between atoms: C_13  and  C_14 
REMARK    6  A    between atoms: CA_15  and  C_16 
REMARK    7  A    between atoms: C_16  and  OXT_18 
ROOT
ATOM      1  C   UNL d   1     -30.065  22.198  22.030  0.00  0.00     0.032 A 
ATOM      2  C   UNL d   1     -29.732  22.710  23.297  0.00  0.00     0.018 A 
ATOM      3  C   UNL d   1     -28.436  22.891  23.656  0.00  0.00     0.013 A 
ATOM      4  C   UNL d   1     -27.404  22.556  22.760  0.00  0.00    -0.025 A 
ATOM      5  C   UNL d   1     -26.054  22.730  23.112  0.00  0.00     0.019 A 
ATOM      6  C   UNL d   1     -25.078  22.402  22.221  0.00  0.00    -0.057 A 
ATOM      7  C   UNL d   1     -25.394  21.895  20.963  0.00  0.00     0.008 A 
ATOM      8  C   UNL d   1     -26.689  21.712  20.587  0.00  0.00     0.013 A 
ATOM      9  C   UNL d   1     -27.726  22.039  21.479  0.00  0.00    -0.025 A 
ATOM     10  C   UNL d   1     -29.071  21.864  21.123  0.00  0.00     0.029 A 
ENDROOT
BRANCH   6  11
ATOM     11  C   UNL d   1     -23.633  22.591  22.603  0.00  0.00     0.043 C 
BRANCH  11  12
ATOM     12  C   UNL d   1     -23.292  24.083  22.589  0.00  0.00     0.051 C 
BRANCH  12  13
ATOM     13  C   UNL d   1     -21.805  24.258  22.421  0.00  0.00     0.044 A 
ATOM     14  C   UNL d   1     -20.907  24.223  23.583  0.00  0.00     0.258 A 
ATOM     15  N   UNL d   1     -19.582  24.379  23.387  0.00  0.00    -0.275 N 
ATOM     16  O   UNL d   1     -21.352  24.053  24.704  0.00  0.00    -0.267 OA
ATOM     17  C   UNL d   1     -19.095  24.572  22.148  0.00  0.00     0.327 A 
ATOM     18  H   UNL d   1     -18.977  24.356  24.144  0.00  0.00     0.173 HD
ATOM     19  N   UNL d   1     -19.897  24.612  21.072  0.00  0.00    -0.302 N 
ATOM     20  O   UNL d   1     -17.897  24.714  21.999  0.00  0.00    -0.247 OA
ATOM     21  CA  UNL d   1     -21.262  24.455  21.191  0.00  0.00     0.122 A 
ATOM     22  H   UNL d   1     -19.509  24.753  20.194  0.00  0.00     0.171 HD
BRANCH  21  23
ATOM     23  C   UNL d   1     -22.128  24.503  19.990  0.00  0.00     0.194 C 
ATOM     24  O   UNL d   1     -22.402  23.478  19.399  0.00  0.00    -0.645 OA
BRANCH  23  25
ATOM     25  OXT UNL d   1     -22.609  25.681  19.552  0.00  0.00    -0.772 OA
ATOM     26  HXT UNL d   1     -22.034  26.206  18.978  0.00  0.00     0.167 HD
ENDBRANCH  23  25
ENDBRANCH  21  23
ENDBRANCH  12  13
ENDBRANCH  11  12
ENDBRANCH   6  11
BRANCH   1  27
ATOM     27  C   UNL d   1     -31.484  22.016  21.661  0.00  0.00     0.251 C 
ATOM     28  N   UNL d   1     -32.401  21.767  22.617  0.00  0.00    -0.357 N 
ATOM     29  H   UNL d   1     -32.130  21.708  23.547  0.00  0.00     0.162 HD
ATOM     30  O   UNL d   1     -31.825  22.091  20.496  0.00  0.00    -0.268 OA
BRANCH  28  31
ATOM     31  C   UNL d   1     -33.808  21.586  22.252  0.00  0.00     0.118 C 
ATOM     32  C   UNL d   1     -34.060  20.119  21.901  0.00  0.00     0.026 C 
ENDBRANCH  28  31
ENDBRANCH   1  27
TORSDOF 7
ENDMDL
