MODEL 1
REMARK VINA RESULT:     -11.2      0.000      0.000
REMARK  7 active torsions:
REMARK  status: ('A' for Active; 'I' for Inactive)
REMARK    1  A    between atoms: C_2  and  O_3 
REMARK    2  A    between atoms: C_2  and  C_4 
REMARK    3  A    between atoms: C_6  and  C_7 
REMARK    4  A    between atoms: C_12  and  N_13 
REMARK    5  A    between atoms: N_13  and  C_14 
REMARK    6  A    between atoms: C_17  and  C_18 
REMARK    7  A    between atoms: C_22  and  O_23 
ROOT
ATOM      1  C   UNL d   1     -27.029  22.632  23.798  0.00  0.00     0.068 A 
ATOM      2  C   UNL d   1     -26.413  21.770  22.893  0.00  0.00     0.150 A 
ATOM      3  N   UNL d   1     -25.245  22.110  22.375  0.00  0.00    -0.238 NA
ATOM      4  C   UNL d   1     -24.657  23.250  22.714  0.00  0.00     0.165 A 
ATOM      5  N   UNL d   1     -25.213  24.092  23.577  0.00  0.00    -0.238 NA
ATOM      6  C   UNL d   1     -26.381  23.819  24.131  0.00  0.00     0.150 A 
ENDROOT
BRANCH   1   7
ATOM      7  N   UNL d   1     -28.266  22.309  24.364  0.00  0.00    -0.353 N 
ATOM      8  H   UNL d   1     -28.338  22.155  25.319  0.00  0.00     0.166 HD
BRANCH   7   9
ATOM      9  C   UNL d   1     -29.393  22.209  23.559  0.00  0.00     0.049 A 
ATOM     10  C   UNL d   1     -30.620  21.801  24.109  0.00  0.00     0.064 A 
ATOM     11  C   UNL d   1     -31.746  21.705  23.287  0.00  0.00     0.028 A 
ATOM     12  C   UNL d   1     -31.648  22.009  21.948  0.00  0.00    -0.053 A 
ATOM     13  C   UNL d   1     -30.434  22.406  21.407  0.00  0.00     0.010 A 
ATOM     14  C   UNL d   1     -29.314  22.512  22.205  0.00  0.00     0.031 A 
BRANCH  10  15
ATOM     15  C   UNL d   1     -30.718  21.477  25.542  0.00  0.00     0.178 C 
ATOM     16  O   UNL d   1     -31.611  21.956  26.214  0.00  0.00    -0.646 OA
BRANCH  15  17
ATOM     17  O   UNL d   1     -29.819  20.649  26.110  0.00  0.00    -0.773 OA
ATOM     18  H   UNL d   1     -29.121  20.301  25.539  0.00  0.00     0.167 HD
ENDBRANCH  15  17
ENDBRANCH  10  15
BRANCH  12  19
ATOM     19  C   UNL d   1     -32.864  21.905  21.064  0.00  0.00     0.018 A 
ATOM     20  C   UNL d   1     -34.224  22.208  21.695  0.00  0.00     0.010 A 
ATOM     21  C   UNL d   1     -33.847  20.767  21.346  0.00  0.00     0.010 A 
ENDBRANCH  12  19
ENDBRANCH   7   9
ENDBRANCH   1   7
BRANCH   4  22
ATOM     22  C   UNL d   1     -23.346  23.592  22.116  0.00  0.00     0.089 A 
ATOM     23  C   UNL d   1     -22.209  23.677  22.923  0.00  0.00     0.136 A 
ATOM     24  C   UNL d   1     -20.988  23.995  22.361  0.00  0.00     0.080 A 
ATOM     25  F   UNL d   1     -22.304  23.449  24.252  0.00  0.00    -0.205 F 
ATOM     26  C   UNL d   1     -20.890  24.229  20.996  0.00  0.00     0.071 A 
ATOM     27  C   UNL d   1     -22.017  24.145  20.190  0.00  0.00     0.080 A 
ATOM     28  C   UNL d   1     -23.242  23.823  20.743  0.00  0.00     0.136 A 
ATOM     29  F   UNL d   1     -24.337  23.736  19.956  0.00  0.00    -0.205 F 
BRANCH  26  30
ATOM     30  O   UNL d   1     -19.687  24.541  20.447  0.00  0.00    -0.361 OA
ATOM     31  H   UNL d   1     -19.019  23.850  20.546  0.00  0.00     0.217 HD
ENDBRANCH  26  30
ENDBRANCH   4  22
TORSDOF 7
ENDMDL
