MODEL 1
REMARK VINA RESULT:     -10.0      0.000      0.000
REMARK  8 active torsions:
REMARK  status: ('A' for Active; 'I' for Inactive)
REMARK    1  A    between atoms: N_4  and  C_5 
REMARK    2  A    between atoms: C_7  and  O_8 
REMARK    3  A    between atoms: O_8  and  C_9 
REMARK    4  A    between atoms: C_9  and  C_11 
REMARK    5  A    between atoms: C_15  and  C_16 
REMARK       I    between atoms: C_16  and  N_18 
REMARK    6  A    between atoms: N_18  and  C_19 
REMARK    7  A    between atoms: C_31  and  C_32 
REMARK    8  A    between atoms: C_32  and  O_34 
ROOT
ATOM      1  C   UNL d   1     -26.692  23.316  23.684  0.00  0.00     0.099 A 
ATOM      2  C   UNL d   1     -25.835  22.823  22.709  0.00  0.00     0.072 A 
ATOM      3  C   UNL d   1     -24.591  23.401  22.524  0.00  0.00     0.087 A 
ATOM      4  C   UNL d   1     -24.198  24.484  23.323  0.00  0.00     0.068 A 
ATOM      5  C   UNL d   1     -25.066  24.971  24.307  0.00  0.00     0.064 A 
ATOM      6  C   UNL d   1     -26.304  24.392  24.479  0.00  0.00     0.146 A 
ATOM      7  F   UNL d   1     -27.144  24.868  25.425  0.00  0.00    -0.204 F 
ENDROOT
BRANCH   4   8
ATOM      8  C   UNL d   1     -22.875  25.102  23.133  0.00  0.00     0.259 C 
ATOM      9  O   UNL d   1     -22.769  26.126  22.486  0.00  0.00    -0.267 OA
ATOM     10  N   UNL d   1     -21.781  24.533  23.677  0.00  0.00    -0.318 N 
ATOM     11  H   UNL d   1     -21.851  23.674  24.122  0.00  0.00     0.169 HD
BRANCH  10  12
ATOM     12  C   UNL d   1     -20.536  25.187  23.601  0.00  0.00     0.101 A 
ATOM     13  C   UNL d   1     -19.583  24.986  22.653  0.00  0.00     0.148 A 
ATOM     14  N   UNL d   1     -18.541  25.808  22.939  0.00  0.00    -0.265 N 
ATOM     15 CL   UNL d   1     -19.680  23.878  21.320  0.00  0.00    -0.060 Cl
ATOM     16  N   UNL d   1     -18.867  26.531  24.093  0.00  0.00    -0.176 NA
ATOM     17  H   UNL d   1     -17.716  25.881  22.433  0.00  0.00     0.190 HD
ATOM     18  C   UNL d   1     -20.058  26.160  24.490  0.00  0.00     0.080 A 
ATOM     19  C   UNL d   1     -20.793  26.695  25.692  0.00  0.00     0.075 C 
ENDBRANCH  10  12
ENDBRANCH   4   8
BRANCH   3  20
ATOM     20  O   UNL d   1     -23.753  22.919  21.571  0.00  0.00    -0.336 OA
BRANCH  20  21
ATOM     21  C   UNL d   1     -23.911  23.433  20.247  0.00  0.00     0.232 C 
ATOM     22  C   UNL d   1     -22.550  23.882  19.710  0.00  0.00     0.049 C 
BRANCH  21  23
ATOM     23  C   UNL d   1     -24.483  22.342  19.341  0.00  0.00     0.413 C 
ATOM     24  F   UNL d   1     -24.584  22.827  18.032  0.00  0.00    -0.168 F 
ATOM     25  F   UNL d   1     -23.636  21.228  19.360  0.00  0.00    -0.168 F 
ATOM     26  F   UNL d   1     -25.751  21.972  19.800  0.00  0.00    -0.168 F 
ENDBRANCH  21  23
ENDBRANCH  20  21
ENDBRANCH   3  20
BRANCH   1  27
ATOM     27  N   UNL d   1     -27.949  22.731  23.867  0.00  0.00    -0.241 N 
ATOM     28  C   UNL d   1     -28.355  22.030  24.958  0.00  0.00     0.128 A 
ATOM     29  C   UNL d   1     -29.631  21.636  24.741  0.00  0.00    -0.015 A 
ATOM     30  C   UNL d   1     -30.482  20.830  25.688  0.00  0.00     0.052 C 
ATOM     31  C   UNL d   1     -30.019  22.107  23.482  0.00  0.00     0.090 A 
ATOM     32  N   UNL d   1     -29.017  22.767  22.960  0.00  0.00    -0.169 NA
BRANCH  31  33
ATOM     33  C   UNL d   1     -31.365  21.896  22.838  0.00  0.00     0.168 C 
ATOM     34  C   UNL d   1     -31.278  22.232  21.348  0.00  0.00     0.046 C 
BRANCH  33  35
ATOM     35  O   UNL d   1     -32.330  22.744  23.463  0.00  0.00    -0.390 OA
ATOM     36  H   UNL d   1     -31.976  23.597  23.750  0.00  0.00     0.210 HD
ENDBRANCH  33  35
ENDBRANCH  31  33
ENDBRANCH   1  27
TORSDOF 8
ENDMDL
