MODEL 1
REMARK VINA RESULT:      -9.1      0.000      0.000
REMARK  13 active torsions:
REMARK  status: ('A' for Active; 'I' for Inactive)
REMARK    1  A    between atoms: C_2  and  C_17 
REMARK    2  A    between atoms: C_3  and  C_4 
REMARK    3  A    between atoms: C_4  and  C_5 
REMARK    4  A    between atoms: C_6  and  O_7 
REMARK    5  A    between atoms: C_12  and  C_13 
REMARK    6  A    between atoms: C_15  and  O_16 
REMARK    7  A    between atoms: C_17  and  C_18 
REMARK    8  A    between atoms: C_18  and  C_19 
REMARK    9  A    between atoms: C_21  and  C_23 
REMARK   10  A    between atoms: C_23  and  C_25 
REMARK   11  A    between atoms: C_25  and  C_26 
REMARK   12  A    between atoms: C_26  and  C_27 
REMARK   13  A    between atoms: C_27  and  O_28 
ROOT
ATOM      1  C   UNL d   1     -26.667  22.713  23.152  0.00  0.00     0.043 C 
ATOM      2  C   UNL d   1     -27.174  21.948  21.956  0.00  0.00    -0.087 C 
ATOM      3  C   UNL d   1     -28.433  22.042  21.606  0.00  0.00    -0.020 C 
ENDROOT
BRANCH   3   4
ATOM      4  C   UNL d   1     -29.345  23.006  22.321  0.00  0.00     0.072 C 
BRANCH   4   5
ATOM      5  C   UNL d   1     -30.531  22.260  22.874  0.00  0.00     0.014 A 
ATOM      6  C   UNL d   1     -30.544  21.868  24.202  0.00  0.00     0.088 A 
ATOM      7  C   UNL d   1     -31.656  21.171  24.711  0.00  0.00     0.043 A 
ATOM      8  C   UNL d   1     -32.737  20.880  23.867  0.00  0.00    -0.021 A 
ATOM      9  C   UNL d   1     -32.710  21.274  22.561  0.00  0.00     0.074 A 
ATOM     10  C   UNL d   1     -33.931  20.134  24.404  0.00  0.00     0.051 C 
ATOM     11  C   UNL d   1     -31.612  21.969  22.056  0.00  0.00     0.097 A 
ATOM     12 CL   UNL d   1     -34.053  20.912  21.522  0.00  0.00    -0.081 Cl
BRANCH   6  13
ATOM     13  O   UNL d   1     -29.491  22.153  25.008  0.00  0.00    -0.359 OA
ATOM     14  H   UNL d   1     -29.336  23.100  25.132  0.00  0.00     0.217 HD
ENDBRANCH   6  13
BRANCH   7  15
ATOM     15  C   UNL d   1     -31.682  20.750  26.113  0.00  0.00     0.273 C 
ATOM     16  O   UNL d   1     -30.771  20.088  26.565  0.00  0.00    -0.301 OA
ENDBRANCH   7  15
BRANCH  11  17
ATOM     17  O   UNL d   1     -31.600  22.359  20.757  0.00  0.00    -0.358 OA
ATOM     18  H   UNL d   1     -32.088  21.772  20.164  0.00  0.00     0.217 HD
ENDBRANCH  11  17
ENDBRANCH   4   5
ENDBRANCH   3   4
BRANCH   2  19
ATOM     19  C   UNL d   1     -26.235  21.076  21.164  0.00  0.00     0.038 C 
BRANCH  19  20
ATOM     20  C   UNL d   1     -24.807  21.266  21.679  0.00  0.00     0.038 C 
BRANCH  20  21
ATOM     21  C   UNL d   1     -24.160  22.418  20.954  0.00  0.00    -0.081 C 
ATOM     22  C   UNL d   1     -24.449  22.648  19.494  0.00  0.00     0.043 C 
ATOM     23  C   UNL d   1     -23.347  23.221  21.595  0.00  0.00    -0.078 C 
ATOM     24  C   UNL d   1     -23.162  23.077  23.084  0.00  0.00     0.044 C 
BRANCH  23  25
ATOM     25  C   UNL d   1     -22.595  24.290  20.842  0.00  0.00     0.010 C 
ATOM     26  C   UNL d   1     -23.071  25.669  21.306  0.00  0.00     0.015 C 
BRANCH  25  27
ATOM     27  C   UNL d   1     -21.097  24.148  21.116  0.00  0.00     0.011 C 
BRANCH  27  28
ATOM     28  C   UNL d   1     -20.603  25.371  21.892  0.00  0.00     0.027 C 
BRANCH  28  29
ATOM     29  C   UNL d   1     -19.419  24.969  22.775  0.00  0.00     0.164 C 
BRANCH  29  30
ATOM     30  O   UNL d   1     -18.277  24.716  21.955  0.00  0.00    -0.401 OA
ATOM     31  H   UNL d   1     -17.945  23.810  22.011  0.00  0.00     0.209 HD
ENDBRANCH  29  30
ENDBRANCH  28  29
ENDBRANCH  27  28
ENDBRANCH  25  27
ENDBRANCH  23  25
ENDBRANCH  20  21
ENDBRANCH  19  20
ENDBRANCH   2  19
TORSDOF 13
ENDMDL
