MODEL 1
REMARK VINA RESULT:     -11.7      0.000      0.000
REMARK  5 active torsions:
REMARK  status: ('A' for Active; 'I' for Inactive)
REMARK    1  A    between atoms: O_2  and  C_3 
REMARK    2  A    between atoms: C_8  and  C_9 
REMARK    3  A    between atoms: C_12  and  C_13 
REMARK    4  A    between atoms: C_15  and  C_16 
REMARK    5  A    between atoms: C_16  and  O_18 
ROOT
ATOM      1  C   UNL d   1     -24.580  23.133  22.730  0.00  0.00    -0.023 A 
ATOM      2  C   UNL d   1     -25.373  23.879  23.602  0.00  0.00     0.013 A 
ATOM      3  C   UNL d   1     -26.707  23.572  23.754  0.00  0.00     0.014 A 
ATOM      4  C   UNL d   1     -27.265  22.514  23.035  0.00  0.00    -0.007 A 
ATOM      5  C   UNL d   1     -26.470  21.765  22.166  0.00  0.00     0.014 A 
ATOM      6  C   UNL d   1     -25.138  22.075  22.011  0.00  0.00     0.013 A 
ENDROOT
BRANCH   4   7
ATOM      7  C   UNL d   1     -28.701  22.184  23.197  0.00  0.00     0.068 A 
ATOM      8  N   UNL d   1     -29.507  22.332  22.166  0.00  0.00    -0.247 NA
ATOM      9  C   UNL d   1     -30.810  22.056  22.235  0.00  0.00     0.068 A 
ATOM     10  C   UNL d   1     -31.372  21.585  23.449  0.00  0.00     0.010 A 
ATOM     11  C   UNL d   1     -31.647  22.223  21.116  0.00  0.00     0.032 A 
ATOM     12  C   UNL d   1     -30.496  21.414  24.608  0.00  0.00     0.052 A 
ATOM     13  C   UNL d   1     -32.739  21.297  23.517  0.00  0.00     0.015 A 
ATOM     14  C   UNL d   1     -29.154  21.726  24.444  0.00  0.00     0.051 A 
ATOM     15  C   UNL d   1     -33.520  21.471  22.413  0.00  0.00     0.001 A 
ATOM     16  C   UNL d   1     -32.973  21.934  21.218  0.00  0.00     0.002 A 
BRANCH  12  17
ATOM     17  C   UNL d   1     -31.019  20.926  25.902  0.00  0.00     0.177 C 
ATOM     18  O   UNL d   1     -31.877  21.557  26.487  0.00  0.00    -0.646 OA
BRANCH  17  19
ATOM     19  O   UNL d   1     -30.544  19.783  26.432  0.00  0.00    -0.773 OA
ATOM     20  H   UNL d   1     -30.677  18.973  25.920  0.00  0.00     0.167 HD
ENDBRANCH  17  19
ENDBRANCH  12  17
ENDBRANCH   4   7
BRANCH   1  21
ATOM     21  C   UNL d   1     -23.144  23.463  22.568  0.00  0.00     0.007 A 
ATOM     22  C   UNL d   1     -22.673  23.970  21.353  0.00  0.00     0.079 A 
ATOM     23  C   UNL d   1     -21.328  24.277  21.211  0.00  0.00     0.037 A 
ATOM     24  C   UNL d   1     -20.459  24.080  22.266  0.00  0.00     0.003 A 
ATOM     25  C   UNL d   1     -20.922  23.579  23.470  0.00  0.00     0.001 A 
ATOM     26  C   UNL d   1     -22.259  23.275  23.627  0.00  0.00     0.015 A 
BRANCH  22  27
ATOM     27  O   UNL d   1     -23.529  24.164  20.316  0.00  0.00    -0.355 OA
ATOM     28  C   UNL d   1     -23.590  23.137  19.325  0.00  0.00     0.210 C 
ENDBRANCH  22  27
ENDBRANCH   1  21
TORSDOF 5
ENDMDL
