MODEL 1
REMARK VINA RESULT:     -11.2      0.000      0.000
REMARK  7 active torsions:
REMARK  status: ('A' for Active; 'I' for Inactive)
REMARK    1  A    between atoms: C_2  and  O_3 
REMARK    2  A    between atoms: C_2  and  C_34 
REMARK    3  A    between atoms: O_3  and  C_4 
REMARK    4  A    between atoms: C_6  and  N_7 
REMARK    5  A    between atoms: S_16  and  N_17 
REMARK    6  A    between atoms: C_22  and  C_23 
REMARK       I    between atoms: C_23  and  N_25 
REMARK    7  A    between atoms: N_25  and  C_26 
ROOT
ATOM      1  C   UNL d   1     -24.763  23.290  22.559  0.00  0.00     0.087 A 
ATOM      2  C   UNL d   1     -26.041  22.769  22.662  0.00  0.00     0.073 A 
ATOM      3  C   UNL d   1     -26.910  23.247  23.634  0.00  0.00     0.105 A 
ATOM      4  C   UNL d   1     -26.501  24.256  24.506  0.00  0.00     0.146 A 
ATOM      5  F   UNL d   1     -27.354  24.719  25.446  0.00  0.00    -0.204 F 
ATOM      6  C   UNL d   1     -25.231  24.777  24.416  0.00  0.00     0.064 A 
ATOM      7  C   UNL d   1     -24.348  24.300  23.439  0.00  0.00     0.068 A 
ENDROOT
BRANCH   3   8
ATOM      8  N   UNL d   1     -28.200  22.719  23.735  0.00  0.00    -0.177 N 
ATOM      9  C   UNL d   1     -29.174  22.805  22.804  0.00  0.00     0.352 A 
ATOM     10  N   UNL d   1     -30.239  22.118  23.261  0.00  0.00    -0.273 N 
ATOM     11  O   UNL d   1     -29.102  23.396  21.741  0.00  0.00    -0.244 OA
ATOM     12  C   UNL d   1     -29.925  21.674  24.534  0.00  0.00     0.230 A 
ATOM     13  C   UNL d   1     -31.488  21.853  22.554  0.00  0.00     0.137 C 
ATOM     14  N   UNL d   1     -28.721  22.001  24.824  0.00  0.00    -0.134 NA
ATOM     15  S   UNL d   1     -31.116  20.833  25.542  0.00  0.00     0.106 S 
ATOM     16  C   UNL d   1     -32.467  20.416  24.381  0.00  0.00     0.129 C 
ATOM     17  O   UNL d   1     -31.483  21.671  26.629  0.00  0.00    -0.240 OA
ATOM     18  C   UNL d   1     -32.672  21.650  23.488  0.00  0.00     0.034 C 
BRANCH  15  19
ATOM     19  N   UNL d   1     -30.521  19.572  26.077  0.00  0.00    -0.246 NA
ATOM     20  H   UNL d   1     -30.491  18.776  25.522  0.00  0.00     0.198 HD
ENDBRANCH  15  19
ENDBRANCH   3   8
BRANCH   1  21
ATOM     21  O   UNL d   1     -23.913  22.823  21.610  0.00  0.00    -0.336 OA
BRANCH  21  22
ATOM     22  C   UNL d   1     -24.013  23.402  20.308  0.00  0.00     0.232 C 
ATOM     23  C   UNL d   1     -22.631  23.878  19.853  0.00  0.00     0.049 C 
BRANCH  22  24
ATOM     24  C   UNL d   1     -24.541  22.357  19.324  0.00  0.00     0.413 C 
ATOM     25  F   UNL d   1     -23.692  21.245  19.324  0.00  0.00    -0.168 F 
ATOM     26  F   UNL d   1     -25.827  21.961  19.709  0.00  0.00    -0.168 F 
ATOM     27  F   UNL d   1     -24.589  22.907  18.039  0.00  0.00    -0.168 F 
ENDBRANCH  22  24
ENDBRANCH  21  22
ENDBRANCH   1  21
BRANCH   7  28
ATOM     28  C   UNL d   1     -22.990  24.859  23.335  0.00  0.00     0.259 C 
ATOM     29  O   UNL d   1     -22.814  25.930  22.784  0.00  0.00    -0.267 OA
ATOM     30  N   UNL d   1     -21.943  24.185  23.849  0.00  0.00    -0.318 N 
ATOM     31  H   UNL d   1     -22.071  23.297  24.216  0.00  0.00     0.169 HD
BRANCH  30  32
ATOM     32  C   UNL d   1     -20.669  24.767  23.852  0.00  0.00     0.113 A 
ATOM     33  C   UNL d   1     -20.276  25.579  24.910  0.00  0.00     0.146 A 
ATOM     34  C   UNL d   1     -19.016  26.152  24.909  0.00  0.00     0.045 A 
ATOM     35  F   UNL d   1     -21.123  25.808  25.937  0.00  0.00    -0.204 F 
ATOM     36  C   UNL d   1     -18.148  25.916  23.859  0.00  0.00     0.006 A 
ATOM     37  C   UNL d   1     -18.536  25.110  22.805  0.00  0.00     0.045 A 
ATOM     38  C   UNL d   1     -19.791  24.529  22.801  0.00  0.00     0.146 A 
ATOM     39  F   UNL d   1     -20.167  23.737  21.773  0.00  0.00    -0.204 F 
ENDBRANCH  30  32
ENDBRANCH   7  28
TORSDOF 7
ENDMDL
