MODEL 1
REMARK VINA RESULT:     -10.2      0.000      0.000
REMARK  8 active torsions:
REMARK  status: ('A' for Active; 'I' for Inactive)
REMARK    1  A    between atoms: C_2  and  O_3 
REMARK    2  A    between atoms: C_2  and  C_32 
REMARK    3  A    between atoms: O_3  and  C_4 
REMARK    4  A    between atoms: C_6  and  N_7 
REMARK    5  A    between atoms: C_9  and  C_10 
REMARK    6  A    between atoms: C_10  and  O_13 
REMARK    7  A    between atoms: C_20  and  C_21 
REMARK       I    between atoms: C_21  and  N_23 
REMARK    8  A    between atoms: N_23  and  C_24 
ROOT
ATOM      1  C   UNL d   1     -26.458  23.034  23.301  0.00  0.00     0.087 A 
ATOM      2  C   UNL d   1     -27.817  22.878  23.511  0.00  0.00     0.069 A 
ATOM      3  C   UNL d   1     -28.571  22.113  22.632  0.00  0.00     0.066 A 
ATOM      4  C   UNL d   1     -27.966  21.510  21.532  0.00  0.00     0.033 A 
ATOM      5  C   UNL d   1     -26.626  21.656  21.315  0.00  0.00     0.022 A 
ATOM      6  C   UNL d   1     -25.853  22.420  22.194  0.00  0.00     0.065 A 
ENDROOT
BRANCH   3   7
ATOM      7  N   UNL d   1     -29.941  21.951  22.848  0.00  0.00    -0.181 N 
ATOM      8  C   UNL d   1     -30.534  21.628  24.016  0.00  0.00     0.351 A 
ATOM      9  N   UNL d   1     -31.862  21.577  23.793  0.00  0.00    -0.286 N 
ATOM     10  O   UNL d   1     -29.972  21.425  25.077  0.00  0.00    -0.244 OA
ATOM     11  C   UNL d   1     -32.090  21.861  22.469  0.00  0.00     0.164 A 
ATOM     12  C   UNL d   1     -32.888  21.262  24.792  0.00  0.00     0.163 C 
ATOM     13  N   UNL d   1     -30.954  22.087  21.889  0.00  0.00    -0.146 NA
BRANCH  11  14
ATOM     14  C   UNL d   1     -33.440  21.902  21.800  0.00  0.00     0.112 C 
ATOM     15  C   UNL d   1     -34.115  20.536  21.929  0.00  0.00     0.054 C 
ATOM     16  C   UNL d   1     -34.309  22.967  22.472  0.00  0.00     0.054 C 
BRANCH  14  17
ATOM     17  O   UNL d   1     -33.276  22.224  20.418  0.00  0.00    -0.383 OA
ATOM     18  H   UNL d   1     -32.557  22.846  20.240  0.00  0.00     0.211 HD
ENDBRANCH  14  17
ENDBRANCH  11  14
ENDBRANCH   3   7
BRANCH   1  19
ATOM     19  O   UNL d   1     -25.715  23.776  24.161  0.00  0.00    -0.340 OA
BRANCH  19  20
ATOM     20  C   UNL d   1     -26.048  25.161  24.277  0.00  0.00     0.190 C 
ATOM     21  C   UNL d   1     -24.860  26.010  23.819  0.00  0.00     0.046 C 
BRANCH  20  22
ATOM     22  C   UNL d   1     -26.376  25.486  25.735  0.00  0.00     0.381 C 
ATOM     23  F   UNL d   1     -27.098  26.683  25.795  0.00  0.00    -0.212 F 
ATOM     24  F   UNL d   1     -27.141  24.451  26.283  0.00  0.00    -0.212 F 
ENDBRANCH  20  22
ENDBRANCH  19  20
ENDBRANCH   1  19
BRANCH   6  25
ATOM     25  C   UNL d   1     -24.407  22.579  21.960  0.00  0.00     0.259 C 
ATOM     26  O   UNL d   1     -23.730  21.616  21.659  0.00  0.00    -0.267 OA
ATOM     27  N   UNL d   1     -23.835  23.794  22.079  0.00  0.00    -0.319 N 
ATOM     28  H   UNL d   1     -24.357  24.547  22.398  0.00  0.00     0.169 HD
BRANCH  27  29
ATOM     29  C   UNL d   1     -22.487  23.969  21.743  0.00  0.00     0.096 A 
ATOM     30  C   UNL d   1     -21.497  23.715  22.684  0.00  0.00     0.064 A 
ATOM     31  C   UNL d   1     -20.167  23.890  22.348  0.00  0.00     0.026 A 
ATOM     32 CL   UNL d   1     -21.928  23.179  24.277  0.00  0.00    -0.082 Cl
ATOM     33  C   UNL d   1     -19.822  24.316  21.079  0.00  0.00     0.005 A 
ATOM     34  C   UNL d   1     -20.804  24.571  20.140  0.00  0.00     0.045 A 
ATOM     35  C   UNL d   1     -22.137  24.393  20.467  0.00  0.00     0.144 A 
ATOM     36  F   UNL d   1     -23.096  24.636  19.547  0.00  0.00    -0.204 F 
ENDBRANCH  27  29
ENDBRANCH   6  25
TORSDOF 8
ENDMDL
