MODEL 1
REMARK VINA RESULT:      -8.2      0.000      0.000
REMARK  9 active torsions:
REMARK  status: ('A' for Active; 'I' for Inactive)
REMARK    1  A    between atoms: C_2  and  N_3 
REMARK    2  A    between atoms: C_4  and  C_5 
REMARK    3  A    between atoms: C_5  and  O_6 
REMARK    4  A    between atoms: N_8  and  C_9 
REMARK    5  A    between atoms: C_11  and  O_12 
REMARK    6  A    between atoms: O_12  and  C_13 
REMARK    7  A    between atoms: C_13  and  C_15 
REMARK    8  A    between atoms: C_20  and  N_21 
REMARK    9  A    between atoms: N_21  and  C_22 
ROOT
ATOM      1  C   UNL d   1     -28.387  22.343  24.392  0.00  0.00     0.068 A 
ATOM      2  C   UNL d   1     -27.561  21.853  23.380  0.00  0.00     0.069 A 
ATOM      3  C   UNL d   1     -26.404  22.523  23.040  0.00  0.00     0.088 A 
ATOM      4  C   UNL d   1     -26.060  23.704  23.716  0.00  0.00     0.073 A 
ATOM      5  C   UNL d   1     -24.941  24.640  23.614  0.00  0.00     0.163 A 
ATOM      6  N   UNL d   1     -25.130  25.581  24.501  0.00  0.00    -0.153 NA
ATOM      7  N   UNL d   1     -26.313  25.344  25.206  0.00  0.00    -0.271 N 
ATOM      8  C   UNL d   1     -26.844  26.186  26.281  0.00  0.00     0.180 C 
ATOM      9  C   UNL d   1     -26.896  24.196  24.736  0.00  0.00     0.071 A 
ATOM     10  C   UNL d   1     -28.060  23.505  25.065  0.00  0.00     0.064 A 
ENDROOT
BRANCH   1  11
ATOM     11  N   UNL d   1     -29.558  21.653  24.727  0.00  0.00    -0.181 N 
ATOM     12  N   UNL d   1     -29.666  20.593  25.637  0.00  0.00    -0.147 NA
ATOM     13  C   UNL d   1     -30.906  20.220  25.676  0.00  0.00     0.154 A 
ATOM     14  N   UNL d   1     -31.632  21.006  24.815  0.00  0.00    -0.283 N 
ATOM     15  C   UNL d   1     -30.793  21.891  24.238  0.00  0.00     0.351 A 
ATOM     16  O   UNL d   1     -31.095  22.745  23.425  0.00  0.00    -0.244 OA
BRANCH  13  17
ATOM     17  C   UNL d   1     -31.459  19.107  26.527  0.00  0.00     0.244 C 
BRANCH  17  18
ATOM     18  O   UNL d   1     -30.873  17.867  26.130  0.00  0.00    -0.393 OA
ATOM     19  H   UNL d   1     -30.287  17.935  25.364  0.00  0.00     0.209 HD
ENDBRANCH  17  18
ENDBRANCH  13  17
BRANCH  14  20
ATOM     20  C   UNL d   1     -33.072  20.904  24.569  0.00  0.00     0.131 C 
ATOM     21  C   UNL d   1     -33.314  20.126  23.274  0.00  0.00     0.027 C 
ENDBRANCH  14  20
ENDBRANCH   1  11
BRANCH   3  22
ATOM     22  O   UNL d   1     -25.603  22.043  22.056  0.00  0.00    -0.336 OA
BRANCH  22  23
ATOM     23  C   UNL d   1     -25.952  22.380  20.712  0.00  0.00     0.232 C 
ATOM     24  C   UNL d   1     -27.003  21.396  20.196  0.00  0.00     0.049 C 
BRANCH  23  25
ATOM     25  C   UNL d   1     -24.705  22.305  19.827  0.00  0.00     0.413 C 
ATOM     26  F   UNL d   1     -25.089  22.096  18.497  0.00  0.00    -0.168 F 
ATOM     27  F   UNL d   1     -23.993  23.506  19.922  0.00  0.00    -0.168 F 
ATOM     28  F   UNL d   1     -23.895  21.247  20.251  0.00  0.00    -0.168 F 
ENDBRANCH  23  25
ENDBRANCH  22  23
ENDBRANCH   3  22
BRANCH   5  29
ATOM     29  N   UNL d   1     -23.864  24.544  22.728  0.00  0.00    -0.335 N 
ATOM     30  H   UNL d   1     -24.017  24.283  21.806  0.00  0.00     0.168 HD
BRANCH  29  31
ATOM     31  C   UNL d   1     -22.567  24.826  23.171  0.00  0.00     0.094 A 
ATOM     32  C   UNL d   1     -21.676  23.790  23.419  0.00  0.00     0.063 A 
ATOM     33  C   UNL d   1     -20.395  24.072  23.856  0.00  0.00     0.026 A 
ATOM     34 CL   UNL d   1     -22.170  22.143  23.179  0.00  0.00    -0.082 Cl
ATOM     35  C   UNL d   1     -20.001  25.383  24.048  0.00  0.00     0.005 A 
ATOM     36  C   UNL d   1     -20.885  26.418  23.802  0.00  0.00     0.045 A 
ATOM     37  C   UNL d   1     -22.166  26.145  23.359  0.00  0.00     0.144 A 
ATOM     38  F   UNL d   1     -23.027  27.156  23.114  0.00  0.00    -0.204 F 
ENDBRANCH  29  31
ENDBRANCH   5  29
TORSDOF 9
ENDMDL
