MODEL 1
REMARK VINA RESULT:      -8.4      0.000      0.000
REMARK  7 active torsions:
REMARK  status: ('A' for Active; 'I' for Inactive)
REMARK    1  A    between atoms: C_2  and  N_3 
REMARK    2  A    between atoms: C_4  and  C_5 
REMARK    3  A    between atoms: C_5  and  O_6 
REMARK    4  A    between atoms: N_8  and  C_9 
REMARK    5  A    between atoms: C_12  and  C_13 
REMARK    6  A    between atoms: C_13  and  C_15 
REMARK    7  A    between atoms: N_20  and  C_21 
ROOT
ATOM      1  C   UNL d   1     -21.879  24.512  23.083  0.00  0.00     0.103 A 
ATOM      2  C   UNL d   1     -21.505  25.217  24.214  0.00  0.00     0.048 A 
ATOM      3  C   UNL d   1     -20.210  25.725  24.306  0.00  0.00    -0.010 A 
ATOM      4  C   UNL d   1     -19.754  26.473  25.479  0.00  0.00    -0.018 A 
ATOM      5  C   UNL d   1     -18.497  26.945  25.513  0.00  0.00     0.109 A 
ATOM      6  N   UNL d   1     -17.616  26.752  24.483  0.00  0.00    -0.288 N 
ATOM      7  C   UNL d   1     -17.950  26.076  23.367  0.00  0.00     0.263 A 
ATOM      8  O   UNL d   1     -17.137  25.925  22.472  0.00  0.00    -0.267 OA
ATOM      9  C   UNL d   1     -19.301  25.524  23.240  0.00  0.00     0.046 A 
ATOM     10  C   UNL d   1     -19.705  24.815  22.107  0.00  0.00     0.062 A 
ATOM     11  C   UNL d   1     -20.976  24.319  22.035  0.00  0.00     0.146 A 
ATOM     12  F   UNL d   1     -21.363  23.632  20.938  0.00  0.00    -0.204 F 
ENDROOT
BRANCH   1  13
ATOM     13  N   UNL d   1     -23.175  23.996  22.986  0.00  0.00    -0.178 N 
ATOM     14  N   UNL d   1     -23.548  22.799  22.360  0.00  0.00    -0.147 NA
ATOM     15  C   UNL d   1     -24.830  22.664  22.480  0.00  0.00     0.154 A 
ATOM     16  N   UNL d   1     -25.326  23.742  23.172  0.00  0.00    -0.283 N 
ATOM     17  C   UNL d   1     -24.299  24.561  23.475  0.00  0.00     0.351 A 
ATOM     18  O   UNL d   1     -24.371  25.614  24.082  0.00  0.00    -0.244 OA
BRANCH  15  19
ATOM     19  C   UNL d   1     -25.644  21.513  21.946  0.00  0.00     0.244 C 
BRANCH  19  20
ATOM     20  O   UNL d   1     -24.770  20.520  21.408  0.00  0.00    -0.393 OA
ATOM     21  H   UNL d   1     -24.725  20.518  20.442  0.00  0.00     0.209 HD
ENDBRANCH  19  20
ENDBRANCH  15  19
BRANCH  16  22
ATOM     22  C   UNL d   1     -26.732  23.966  23.514  0.00  0.00     0.131 C 
ATOM     23  C   UNL d   1     -27.027  23.354  24.885  0.00  0.00     0.027 C 
ENDBRANCH  16  22
ENDBRANCH   1  13
BRANCH   4  24
ATOM     24  C   UNL d   1     -20.686  26.712  26.639  0.00  0.00     0.124 C 
ATOM     25  C   UNL d   1     -19.920  26.538  27.952  0.00  0.00     0.024 C 
BRANCH  24  26
ATOM     26  C   UNL d   1     -21.245  28.134  26.560  0.00  0.00     0.395 C 
ATOM     27  F   UNL d   1     -21.883  28.316  25.328  0.00  0.00    -0.170 F 
ATOM     28  F   UNL d   1     -22.164  28.332  27.594  0.00  0.00    -0.170 F 
ATOM     29  F   UNL d   1     -20.198  29.054  26.682  0.00  0.00    -0.170 F 
ENDBRANCH  24  26
ENDBRANCH   4  24
BRANCH   6  30
ATOM     30  C   UNL d   1     -16.322  27.275  24.595  0.00  0.00     0.048 A 
ATOM     31  C   UNL d   1     -15.315  26.523  25.187  0.00  0.00    -0.035 A 
ATOM     32  C   UNL d   1     -14.039  27.039  25.290  0.00  0.00     0.009 A 
ATOM     33  C   UNL d   1     -15.615  25.140  25.707  0.00  0.00     0.050 C 
ATOM     34  C   UNL d   1     -13.764  28.309  24.816  0.00  0.00     0.001 A 
ATOM     35  C   UNL d   1     -14.767  29.064  24.234  0.00  0.00     0.002 A 
ATOM     36  C   UNL d   1     -16.043  28.551  24.121  0.00  0.00     0.030 A 
ENDBRANCH   6  30
TORSDOF 7
ENDMDL
