MODEL 1
REMARK VINA RESULT:      -9.6      0.000      0.000
REMARK  11 active torsions:
REMARK  status: ('A' for Active; 'I' for Inactive)
REMARK    1  A    between atoms: C_2  and  C_3 
REMARK    2  A    between atoms: C_3  and  N_4 
REMARK    3  A    between atoms: C_5  and  C_6 
REMARK    4  A    between atoms: C_6  and  O_7 
REMARK    5  A    between atoms: N_9  and  C_10 
REMARK    6  A    between atoms: C_12  and  O_13 
REMARK    7  A    between atoms: O_13  and  C_14 
REMARK    8  A    between atoms: C_14  and  C_16 
REMARK    9  A    between atoms: C_20  and  C_21 
REMARK       I    between atoms: C_21  and  N_23 
REMARK   10  A    between atoms: N_23  and  C_24 
REMARK   11  A    between atoms: C_30  and  O_31 
ROOT
ATOM      1  C   UNL d   1     -26.644  23.445  23.793  0.00  0.00     0.104 A 
ATOM      2  C   UNL d   1     -25.727  22.951  22.875  0.00  0.00     0.073 A 
ATOM      3  C   UNL d   1     -24.469  23.520  22.779  0.00  0.00     0.087 A 
ATOM      4  C   UNL d   1     -24.124  24.596  23.610  0.00  0.00     0.068 A 
ATOM      5  C   UNL d   1     -25.052  25.083  24.536  0.00  0.00     0.064 A 
ATOM      6  C   UNL d   1     -26.303  24.514  24.621  0.00  0.00     0.146 A 
ATOM      7  F   UNL d   1     -27.200  24.990  25.512  0.00  0.00    -0.204 F 
ENDROOT
BRANCH   4   8
ATOM      8  C   UNL d   1     -22.786  25.205  23.513  0.00  0.00     0.259 C 
ATOM      9  O   UNL d   1     -22.601  26.150  22.770  0.00  0.00    -0.267 OA
ATOM     10  N   UNL d   1     -21.768  24.717  24.249  0.00  0.00    -0.319 N 
ATOM     11  H   UNL d   1     -21.894  23.914  24.779  0.00  0.00     0.169 HD
BRANCH  10  12
ATOM     12  C   UNL d   1     -20.529  25.368  24.249  0.00  0.00     0.094 A 
ATOM     13  C   UNL d   1     -19.507  24.947  23.395  0.00  0.00     0.191 A 
ATOM     14  N   UNL d   1     -18.338  25.562  23.394  0.00  0.00    -0.235 NA
ATOM     15  C   UNL d   1     -18.091  26.586  24.189  0.00  0.00     0.120 A 
ATOM     16  C   UNL d   1     -19.055  27.060  25.056  0.00  0.00     0.028 A 
ATOM     17  C   UNL d   1     -20.296  26.444  25.097  0.00  0.00    -0.029 A 
ATOM     18  C   UNL d   1     -21.370  26.932  26.035  0.00  0.00     0.050 C 
BRANCH  13  19
ATOM     19  O   UNL d   1     -19.718  23.898  22.561  0.00  0.00    -0.338 OA
ATOM     20  C   UNL d   1     -19.371  24.083  21.187  0.00  0.00     0.211 C 
ENDBRANCH  13  19
ENDBRANCH  10  12
ENDBRANCH   4   8
BRANCH   3  21
ATOM     21  O   UNL d   1     -23.572  23.038  21.881  0.00  0.00    -0.336 OA
BRANCH  21  22
ATOM     22  C   UNL d   1     -23.844  23.276  20.500  0.00  0.00     0.232 C 
ATOM     23  C   UNL d   1     -22.547  23.655  19.782  0.00  0.00     0.049 C 
BRANCH  22  24
ATOM     24  C   UNL d   1     -24.426  22.010  19.868  0.00  0.00     0.413 C 
ATOM     25  F   UNL d   1     -24.170  20.915  20.700  0.00  0.00    -0.168 F 
ATOM     26  F   UNL d   1     -25.807  22.161  19.707  0.00  0.00    -0.168 F 
ATOM     27  F   UNL d   1     -23.831  21.796  18.620  0.00  0.00    -0.168 F 
ENDBRANCH  22  24
ENDBRANCH  21  22
ENDBRANCH   3  21
BRANCH   1  28
ATOM     28  N   UNL d   1     -27.913  22.869  23.888  0.00  0.00    -0.178 N 
ATOM     29  N   UNL d   1     -28.970  23.033  22.983  0.00  0.00    -0.147 NA
ATOM     30  C   UNL d   1     -29.978  22.343  23.412  0.00  0.00     0.154 A 
ATOM     31  N   UNL d   1     -29.624  21.721  24.583  0.00  0.00    -0.282 N 
ATOM     32  C   UNL d   1     -28.346  22.047  24.866  0.00  0.00     0.351 A 
ATOM     33  O   UNL d   1     -27.702  21.670  25.830  0.00  0.00    -0.244 OA
BRANCH  30  34
ATOM     34  C   UNL d   1     -31.321  22.241  22.737  0.00  0.00     0.244 C 
BRANCH  34  35
ATOM     35  O   UNL d   1     -31.149  22.311  21.320  0.00  0.00    -0.393 OA
ATOM     36  H   UNL d   1     -30.534  23.000  21.032  0.00  0.00     0.209 HD
ENDBRANCH  34  35
ENDBRANCH  30  34
BRANCH  31  37
ATOM     37  C   UNL d   1     -30.483  20.847  25.386  0.00  0.00     0.135 C 
BRANCH  37  38
ATOM     38  C   UNL d   1     -31.824  21.542  25.636  0.00  0.00     0.016 C 
ATOM     39  C   UNL d   1     -32.959  20.526  25.492  0.00  0.00     0.006 C 
ENDBRANCH  37  38
ENDBRANCH  31  37
ENDBRANCH   1  28
TORSDOF 11
ENDMDL
