MODEL 1
REMARK VINA RESULT:      -8.8      0.000      0.000
REMARK  4 active torsions:
REMARK  status: ('A' for Active; 'I' for Inactive)
REMARK    1  A    between atoms: C_6  and  N_7 
REMARK       I    between atoms: N_7  and  C_8 
REMARK    2  A    between atoms: C_8  and  C_10 
REMARK    3  A    between atoms: C_10  and  C_13 
REMARK    4  A    between atoms: C_13  and  C_15 
ROOT
ATOM      1  N   UNL d   1     -25.009  24.754  23.469  0.00  0.00    -0.191 NA
ATOM      2  C   UNL d   1     -25.865  24.068  23.764  0.00  0.00     0.099 C 
ATOM      3  C   UNL d   1     -26.943  23.202  24.136  0.00  0.00     0.044 A 
ATOM      4  C   UNL d   1     -27.088  22.795  25.465  0.00  0.00     0.025 A 
ATOM      5  C   UNL d   1     -28.127  21.963  25.819  0.00  0.00     0.031 A 
ATOM      6  C   UNL d   1     -29.029  21.526  24.856  0.00  0.00     0.034 A 
ATOM      7  C   UNL d   1     -28.886  21.926  23.531  0.00  0.00     0.031 A 
ATOM      8  C   UNL d   1     -27.853  22.762  23.171  0.00  0.00     0.025 A 
ENDROOT
BRANCH   6   9
ATOM      9  N   UNL d   1     -30.080  20.681  25.218  0.00  0.00    -0.326 N 
ATOM     10  C   UNL d   1     -31.245  21.203  25.648  0.00  0.00     0.247 C 
ATOM     11  O   UNL d   1     -31.352  22.400  25.811  0.00  0.00    -0.271 OA
ATOM     12  H   UNL d   1     -29.970  19.720  25.160  0.00  0.00     0.169 HD
BRANCH  10  13
ATOM     13  C   UNL d   1     -32.419  20.298  25.926  0.00  0.00     0.254 C 
ATOM     14  C   UNL d   1     -31.949  18.908  26.042  0.00  0.00     0.081 C 
ATOM     15  N   UNL d   1     -31.587  17.834  26.131  0.00  0.00    -0.196 NA
BRANCH  13  16
ATOM     16  C   UNL d   1     -33.412  20.400  24.796  0.00  0.00     0.157 C 
ATOM     17  O   UNL d   1     -34.577  20.152  24.993  0.00  0.00    -0.296 OA
BRANCH  16  18
ATOM     18  C   UNL d   1     -32.950  20.810  23.422  0.00  0.00     0.057 A 
ATOM     19  C   UNL d   1     -33.927  20.616  22.260  0.00  0.00     0.013 A 
ATOM     20  C   UNL d   1     -33.627  22.024  22.782  0.00  0.00     0.013 A 
ENDBRANCH  16  18
ENDBRANCH  13  16
ENDBRANCH  10  13
ENDBRANCH   6   9
TORSDOF 4
ENDMDL
