MODEL 1
REMARK VINA RESULT:     -11.1      0.000      0.000
REMARK  7 active torsions:
REMARK  status: ('A' for Active; 'I' for Inactive)
REMARK    1  A    between atoms: C_2  and  C_3 
REMARK    2  A    between atoms: C_3  and  O_5 
REMARK    3  A    between atoms: O_5  and  C_6 
REMARK    4  A    between atoms: C_8  and  N_9 
REMARK       I    between atoms: N_9  and  C_10 
REMARK    5  A    between atoms: C_10  and  C_12 
REMARK    6  A    between atoms: C_15  and  O_17 
REMARK    7  A    between atoms: C_21  and  C_22 
ROOT
ATOM      1  C   UNL d   1     -24.067  24.297  23.341  0.00  0.00     0.141 C 
ATOM      2  C   UNL d   1     -22.817  23.675  23.024  0.00  0.00     0.107 C 
ATOM      3  N   UNL d   1     -21.825  23.182  22.771  0.00  0.00    -0.191 NA
ATOM      4  C   UNL d   1     -24.143  25.653  23.463  0.00  0.00     0.065 C 
ATOM      5  C   UNL d   1     -22.911  26.497  23.261  0.00  0.00     0.077 C 
ENDROOT
BRANCH   1   6
ATOM      6  C   UNL d   1     -25.268  23.474  23.539  0.00  0.00     0.269 C 
ATOM      7  N   UNL d   1     -26.061  23.683  24.608  0.00  0.00    -0.320 N 
ATOM      8  H   UNL d   1     -25.807  24.336  25.280  0.00  0.00     0.169 HD
ATOM      9  O   UNL d   1     -25.547  22.602  22.737  0.00  0.00    -0.266 OA
BRANCH   7  10
ATOM     10  C   UNL d   1     -27.250  22.961  24.749  0.00  0.00     0.076 A 
ATOM     11  C   UNL d   1     -28.137  22.873  23.686  0.00  0.00     0.070 A 
ATOM     12  C   UNL d   1     -29.315  22.158  23.823  0.00  0.00     0.082 A 
ATOM     13  C   UNL d   1     -29.609  21.526  25.036  0.00  0.00     0.011 A 
ATOM     14  C   UNL d   1     -28.715  21.619  26.101  0.00  0.00     0.059 A 
ATOM     15  C   UNL d   1     -27.542  22.333  25.958  0.00  0.00     0.144 A 
ATOM     16  F   UNL d   1     -26.676  22.422  26.991  0.00  0.00    -0.204 F 
BRANCH  12  17
ATOM     17  O   UNL d   1     -30.183  22.070  22.782  0.00  0.00    -0.345 OA
BRANCH  17  18
ATOM     18  C   UNL d   1     -29.682  22.413  21.489  0.00  0.00     0.124 C 
ATOM     19  C   UNL d   1     -28.535  21.469  21.120  0.00  0.00     0.040 C 
BRANCH  18  20
ATOM     20  C   UNL d   1     -30.803  22.281  20.456  0.00  0.00     0.027 C 
ATOM     21  C   UNL d   1     -32.119  21.969  21.169  0.00  0.00     0.007 C 
ENDBRANCH  18  20
ENDBRANCH  17  18
ENDBRANCH  12  17
BRANCH  13  22
ATOM     22  C   UNL d   1     -30.870  20.761  25.188  0.00  0.00    -0.017 A 
ATOM     23  C   UNL d   1     -30.911  19.642  26.018  0.00  0.00     0.054 A 
ATOM     24  C   UNL d   1     -32.089  18.931  26.158  0.00  0.00     0.120 A 
ATOM     25  C   UNL d   1     -33.226  19.329  25.474  0.00  0.00     0.084 A 
ATOM     26  F   UNL d   1     -32.131  17.846  26.962  0.00  0.00    -0.206 F 
ATOM     27  C   UNL d   1     -33.188  20.440  24.646  0.00  0.00     0.120 A 
ATOM     28  C   UNL d   1     -32.017  21.161  24.505  0.00  0.00     0.054 A 
ATOM     29  F   UNL d   1     -34.300  20.823  23.982  0.00  0.00    -0.206 F 
ENDBRANCH  13  22
ENDBRANCH   7  10
ENDBRANCH   1   6
BRANCH   4  30
ATOM     30  O   UNL d   1     -25.316  26.237  23.761  0.00  0.00    -0.364 OA
ATOM     31  H   UNL d   1     -26.080  25.656  23.870  0.00  0.00     0.217 HD
ENDBRANCH   4  30
TORSDOF 7
ENDMDL
