MODEL 1
REMARK VINA RESULT:     -11.0      0.000      0.000
REMARK  7 active torsions:
REMARK  status: ('A' for Active; 'I' for Inactive)
REMARK    1  A    between atoms: C_2  and  O_3 
REMARK    2  A    between atoms: C_2  and  C_33 
REMARK    3  A    between atoms: O_3  and  C_4 
REMARK    4  A    between atoms: C_6  and  N_7 
REMARK    5  A    between atoms: C_15  and  O_16 
REMARK    6  A    between atoms: C_21  and  C_22 
REMARK       I    between atoms: C_22  and  N_24 
REMARK    7  A    between atoms: N_24  and  C_25 
ROOT
ATOM      1  C   UNL d   1     -24.689  23.368  22.645  0.00  0.00     0.087 A 
ATOM      2  C   UNL d   1     -25.948  22.823  22.826  0.00  0.00     0.073 A 
ATOM      3  C   UNL d   1     -26.797  23.340  23.795  0.00  0.00     0.104 A 
ATOM      4  C   UNL d   1     -26.385  24.408  24.592  0.00  0.00     0.146 A 
ATOM      5  F   UNL d   1     -27.218  24.910  25.530  0.00  0.00    -0.204 F 
ATOM      6  C   UNL d   1     -25.134  24.956  24.421  0.00  0.00     0.064 A 
ATOM      7  C   UNL d   1     -24.272  24.443  23.446  0.00  0.00     0.068 A 
ENDROOT
BRANCH   3   8
ATOM      8  N   UNL d   1     -28.067  22.788  23.974  0.00  0.00    -0.178 N 
ATOM      9  C   UNL d   1     -28.467  22.017  25.009  0.00  0.00     0.351 A 
ATOM     10  N   UNL d   1     -29.762  21.722  24.813  0.00  0.00    -0.284 N 
ATOM     11  O   UNL d   1     -27.779  21.655  25.947  0.00  0.00    -0.244 OA
ATOM     12  C   UNL d   1     -30.159  22.287  23.618  0.00  0.00     0.133 A 
ATOM     13  C   UNL d   1     -30.648  20.959  25.698  0.00  0.00     0.138 C 
ATOM     14  N   UNL d   1     -29.166  22.936  23.115  0.00  0.00    -0.149 NA
ATOM     15  C   UNL d   1     -31.542  22.118  23.031  0.00  0.00     0.112 C 
ATOM     16  C   UNL d   1     -32.485  21.668  24.155  0.00  0.00     0.127 C 
ATOM     17  C   UNL d   1     -31.856  20.478  24.887  0.00  0.00     0.052 C 
BRANCH  16  18
ATOM     18  O   UNL d   1     -33.740  21.277  23.597  0.00  0.00    -0.395 OA
ATOM     19  H   UNL d   1     -34.292  20.755  24.197  0.00  0.00     0.210 HD
ENDBRANCH  16  18
ENDBRANCH   3   8
BRANCH   1  20
ATOM     20  O   UNL d   1     -23.858  22.863  21.698  0.00  0.00    -0.336 OA
BRANCH  20  21
ATOM     21  C   UNL d   1     -23.976  23.400  20.380  0.00  0.00     0.232 C 
ATOM     22  C   UNL d   1     -22.599  23.847  19.886  0.00  0.00     0.049 C 
BRANCH  21  23
ATOM     23  C   UNL d   1     -24.532  22.328  19.441  0.00  0.00     0.413 C 
ATOM     24  F   UNL d   1     -23.693  21.210  19.460  0.00  0.00    -0.168 F 
ATOM     25  F   UNL d   1     -25.814  21.957  19.862  0.00  0.00    -0.168 F 
ATOM     26  F   UNL d   1     -24.600  22.838  18.139  0.00  0.00    -0.168 F 
ENDBRANCH  21  23
ENDBRANCH  20  21
ENDBRANCH   1  20
BRANCH   7  27
ATOM     27  C   UNL d   1     -22.934  25.026  23.260  0.00  0.00     0.259 C 
ATOM     28  O   UNL d   1     -22.802  26.060  22.633  0.00  0.00    -0.267 OA
ATOM     29  N   UNL d   1     -21.853  24.413  23.783  0.00  0.00    -0.318 N 
ATOM     30  H   UNL d   1     -21.947  23.548  24.213  0.00  0.00     0.169 HD
BRANCH  29  31
ATOM     31  C   UNL d   1     -20.595  25.023  23.707  0.00  0.00     0.113 A 
ATOM     32  C   UNL d   1     -20.227  25.982  24.643  0.00  0.00     0.146 A 
ATOM     33  C   UNL d   1     -18.983  26.583  24.564  0.00  0.00     0.045 A 
ATOM     34  F   UNL d   1     -21.084  26.328  25.630  0.00  0.00    -0.204 F 
ATOM     35  C   UNL d   1     -18.106  26.231  23.555  0.00  0.00     0.006 A 
ATOM     36  C   UNL d   1     -18.468  25.277  22.622  0.00  0.00     0.045 A 
ATOM     37  C   UNL d   1     -19.707  24.667  22.697  0.00  0.00     0.146 A 
ATOM     38  F   UNL d   1     -20.058  23.731  21.788  0.00  0.00    -0.204 F 
ENDBRANCH  29  31
ENDBRANCH   7  27
TORSDOF 7
ENDMDL
