MODEL 1
REMARK VINA RESULT:     -11.3      0.000      0.000
REMARK  9 active torsions:
REMARK  status: ('A' for Active; 'I' for Inactive)
REMARK    1  A    between atoms: C_3  and  N_4 
REMARK    2  A    between atoms: N_4  and  C_5 
REMARK    3  A    between atoms: C_13  and  O_14 
REMARK    4  A    between atoms: C_19  and  O_20 
REMARK    5  A    between atoms: O_20  and  C_21 
REMARK       I    between atoms: N_24  and  C_25 
REMARK    6  A    between atoms: C_25  and  C_27 
REMARK    7  A    between atoms: C_27  and  C_28 
REMARK    8  A    between atoms: C_28  and  C_29 
REMARK    9  A    between atoms: C_28  and  C_33 
ROOT
ATOM      1  C   UNL d   1     -24.613  25.904  24.191  0.00  0.00     0.053 C 
ATOM      2  C   UNL d   1     -24.508  24.700  23.290  0.00  0.00    -0.002 A 
ATOM      3  C   UNL d   1     -23.540  24.659  22.296  0.00  0.00     0.044 A 
ATOM      4  C   UNL d   1     -23.448  23.551  21.463  0.00  0.00     0.054 A 
ATOM      5  C   UNL d   1     -24.317  22.488  21.629  0.00  0.00     0.038 A 
ATOM      6 CL   UNL d   1     -24.201  21.104  20.587  0.00  0.00    -0.084 Cl
ATOM      7  C   UNL d   1     -25.277  22.525  22.623  0.00  0.00     0.061 A 
ATOM      8  C   UNL d   1     -25.373  23.631  23.457  0.00  0.00     0.079 A 
ENDROOT
BRANCH   8   9
ATOM      9  O   UNL d   1     -26.317  23.665  24.433  0.00  0.00    -0.345 OA
BRANCH   9  10
ATOM     10  C   UNL d   1     -27.361  22.692  24.361  0.00  0.00     0.132 C 
ATOM     11  C   UNL d   1     -28.440  23.175  23.388  0.00  0.00     0.052 C 
ATOM     12  C   UNL d   1     -29.541  22.109  23.285  0.00  0.00     0.128 C 
ATOM     13  N   UNL d   1     -30.037  21.817  24.636  0.00  0.00    -0.352 N 
ATOM     14  C   UNL d   1     -29.071  21.431  25.675  0.00  0.00     0.128 C 
ATOM     15  C   UNL d   1     -31.352  21.895  24.918  0.00  0.00     0.220 C 
ATOM     16  C   UNL d   1     -27.975  22.499  25.749  0.00  0.00     0.052 C 
ATOM     17  O   UNL d   1     -31.749  21.647  26.036  0.00  0.00    -0.273 OA
BRANCH  15  18
ATOM     18  C   UNL d   1     -32.330  22.292  23.841  0.00  0.00     0.125 C 
BRANCH  18  19
ATOM     19  C   UNL d   1     -32.473  21.148  22.835  0.00  0.00     0.209 C 
BRANCH  19  20
ATOM     20  C   UNL d   1     -32.998  21.699  21.507  0.00  0.00     0.400 C 
ATOM     21  F   UNL d   1     -31.953  22.315  20.811  0.00  0.00    -0.170 F 
ATOM     22  F   UNL d   1     -33.516  20.650  20.740  0.00  0.00    -0.170 F 
ATOM     23  F   UNL d   1     -34.008  22.635  21.758  0.00  0.00    -0.170 F 
ENDBRANCH  19  20
BRANCH  19  24
ATOM     24  C   UNL d   1     -33.454  20.108  23.380  0.00  0.00     0.400 C 
ATOM     25  F   UNL d   1     -32.814  19.326  24.347  0.00  0.00    -0.170 F 
ATOM     26  F   UNL d   1     -34.549  20.759  23.957  0.00  0.00    -0.170 F 
ATOM     27  F   UNL d   1     -33.894  19.290  22.335  0.00  0.00    -0.170 F 
ENDBRANCH  19  24
ENDBRANCH  18  19
ENDBRANCH  15  18
ENDBRANCH   9  10
ENDBRANCH   8   9
BRANCH   3  28
ATOM     28  N   UNL d   1     -22.661  25.733  22.130  0.00  0.00    -0.335 N 
ATOM     29  H   UNL d   1     -22.830  26.396  21.443  0.00  0.00     0.168 HD
BRANCH  28  30
ATOM     30  C   UNL d   1     -21.547  25.850  22.947  0.00  0.00     0.172 A 
ATOM     31  S   UNL d   1     -20.072  25.018  22.719  0.00  0.00    -0.054 SA
ATOM     32  C   UNL d   1     -19.399  25.794  24.147  0.00  0.00     0.013 A 
ATOM     33  C   UNL d   1     -20.333  26.602  24.678  0.00  0.00     0.079 A 
ATOM     34  C   UNL d   1     -18.008  25.591  24.698  0.00  0.00     0.048 C 
ATOM     35  N   UNL d   1     -21.474  26.601  23.998  0.00  0.00    -0.225 NA
ATOM     36  C   UNL d   1     -20.088  27.428  25.932  0.00  0.00     0.171 C 
ATOM     37  C   UNL d   1     -18.871  26.859  26.664  0.00  0.00     0.038 C 
ATOM     38  C   UNL d   1     -17.702  26.723  25.684  0.00  0.00     0.008 C 
BRANCH  36  39
ATOM     39  O   UNL d   1     -21.234  27.361  26.781  0.00  0.00    -0.389 OA
ATOM     40  H   UNL d   1     -21.901  28.037  26.596  0.00  0.00     0.210 HD
ENDBRANCH  36  39
ENDBRANCH  28  30
ENDBRANCH   3  28
TORSDOF 9
ENDMDL
