MODEL 1
REMARK VINA RESULT:      -9.8      0.000      0.000
REMARK  6 active torsions:
REMARK  status: ('A' for Active; 'I' for Inactive)
REMARK    1  A    between atoms: O_2  and  C_3 
REMARK    2  A    between atoms: C_10  and  C_11 
REMARK    3  A    between atoms: C_11  and  C_12 
REMARK    4  A    between atoms: C_12  and  C_13 
REMARK    5  A    between atoms: CA_14  and  C_15 
REMARK    6  A    between atoms: C_15  and  OXT_17 
ROOT
ATOM      1  C   UNL d   1     -24.246  23.697  22.395  0.00  0.00     0.044 A 
ATOM      2  CA  UNL d   1     -24.226  23.082  21.184  0.00  0.00     0.122 A 
ATOM      3  N   UNL d   1     -23.469  23.620  20.165  0.00  0.00    -0.302 N 
ATOM      4  H   UNL d   1     -23.454  23.181  19.299  0.00  0.00     0.171 HD
ATOM      5  C   UNL d   1     -22.752  24.741  20.348  0.00  0.00     0.327 A 
ATOM      6  O   UNL d   1     -22.097  25.182  19.424  0.00  0.00    -0.247 OA
ATOM      7  N   UNL d   1     -22.738  25.387  21.527  0.00  0.00    -0.275 N 
ATOM      8  H   UNL d   1     -22.209  26.194  21.627  0.00  0.00     0.173 HD
ATOM      9  C   UNL d   1     -23.459  24.925  22.569  0.00  0.00     0.258 A 
ATOM     10  O   UNL d   1     -23.452  25.510  23.636  0.00  0.00    -0.267 OA
ENDROOT
BRANCH   1  11
ATOM     11  C   UNL d   1     -25.064  23.137  23.531  0.00  0.00     0.051 C 
BRANCH  11  12
ATOM     12  C   UNL d   1     -26.517  23.593  23.386  0.00  0.00     0.044 C 
BRANCH  12  13
ATOM     13  C   UNL d   1     -27.359  22.929  24.446  0.00  0.00    -0.047 A 
ATOM     14  C   UNL d   1     -26.862  22.745  25.698  0.00  0.00     0.008 A 
ATOM     15  C   UNL d   1     -27.626  22.134  26.691  0.00  0.00     0.001 A 
ATOM     16  C   UNL d   1     -28.891  21.703  26.435  0.00  0.00     0.012 A 
ATOM     17  C   UNL d   1     -29.439  21.875  25.153  0.00  0.00    -0.025 A 
ATOM     18  C   UNL d   1     -30.743  21.442  24.853  0.00  0.00     0.015 A 
ATOM     19  C   UNL d   1     -28.663  22.497  24.143  0.00  0.00    -0.017 A 
ATOM     20  C   UNL d   1     -31.243  21.624  23.601  0.00  0.00     0.037 A 
ATOM     21  C   UNL d   1     -30.478  22.236  22.604  0.00  0.00     0.069 A 
ATOM     22  C   UNL d   1     -29.208  22.669  22.861  0.00  0.00     0.049 A 
BRANCH  21  23
ATOM     23  O   UNL d   1     -31.005  22.403  21.363  0.00  0.00    -0.356 OA
ATOM     24  C   UNL d   1     -32.350  21.963  21.164  0.00  0.00     0.210 C 
ENDBRANCH  21  23
ENDBRANCH  12  13
ENDBRANCH  11  12
ENDBRANCH   1  11
BRANCH   2  25
ATOM     25  C   UNL d   1     -25.010  21.844  20.960  0.00  0.00     0.194 C 
ATOM     26  O   UNL d   1     -26.037  21.884  20.316  0.00  0.00    -0.645 OA
BRANCH  25  27
ATOM     27  OXT UNL d   1     -24.581  20.674  21.471  0.00  0.00    -0.772 OA
ATOM     28  HXT UNL d   1     -25.162  20.231  22.104  0.00  0.00     0.167 HD
ENDBRANCH  25  27
ENDBRANCH   2  25
TORSDOF 6
ENDMDL
