MODEL 1
REMARK VINA RESULT:      -9.4      0.000      0.000
REMARK  9 active torsions:
REMARK  status: ('A' for Active; 'I' for Inactive)
REMARK    1  A    between atoms: C_2  and  N_3 
REMARK    2  A    between atoms: C_4  and  C_5 
REMARK    3  A    between atoms: C_5  and  O_6 
REMARK    4  A    between atoms: N_8  and  C_9 
REMARK    5  A    between atoms: C_11  and  O_12 
REMARK    6  A    between atoms: O_12  and  C_13 
REMARK    7  A    between atoms: C_13  and  C_15 
REMARK    8  A    between atoms: C_19  and  C_20 
REMARK       I    between atoms: C_20  and  N_22 
REMARK    9  A    between atoms: N_22  and  C_23 
ROOT
ATOM      1  C   UNL d   1     -26.636  23.403  23.625  0.00  0.00     0.197 A 
ATOM      2  N   UNL d   1     -25.775  22.948  22.729  0.00  0.00    -0.201 NA
ATOM      3  C   UNL d   1     -24.568  23.469  22.595  0.00  0.00     0.183 A 
ATOM      4  C   UNL d   1     -24.154  24.528  23.420  0.00  0.00     0.088 A 
ATOM      5  C   UNL d   1     -25.044  25.027  24.382  0.00  0.00     0.068 A 
ATOM      6  C   UNL d   1     -26.297  24.452  24.479  0.00  0.00     0.165 A 
ATOM      7  F   UNL d   1     -27.185  24.902  25.392  0.00  0.00    -0.202 F 
ENDROOT
BRANCH   1   8
ATOM      8  N   UNL d   1     -27.898  22.823  23.720  0.00  0.00    -0.159 N 
ATOM      9  N   UNL d   1     -28.937  22.938  22.785  0.00  0.00    -0.145 NA
ATOM     10  C   UNL d   1     -29.947  22.256  23.222  0.00  0.00     0.154 A 
ATOM     11  N   UNL d   1     -29.615  21.695  24.431  0.00  0.00    -0.283 N 
ATOM     12  C   UNL d   1     -28.348  22.047  24.727  0.00  0.00     0.352 A 
ATOM     13  O   UNL d   1     -27.724  21.724  25.722  0.00  0.00    -0.244 OA
BRANCH  10  14
ATOM     14  C   UNL d   1     -31.273  22.108  22.521  0.00  0.00     0.244 C 
BRANCH  14  15
ATOM     15  O   UNL d   1     -31.103  22.345  21.123  0.00  0.00    -0.393 OA
ATOM     16  H   UNL d   1     -30.613  21.650  20.661  0.00  0.00     0.209 HD
ENDBRANCH  14  15
ENDBRANCH  10  14
BRANCH  11  17
ATOM     17  C   UNL d   1     -30.485  20.852  25.253  0.00  0.00     0.131 C 
ATOM     18  C   UNL d   1     -31.596  21.711  25.864  0.00  0.00     0.027 C 
ENDBRANCH  11  17
ENDBRANCH   1   8
BRANCH   3  19
ATOM     19  O   UNL d   1     -23.720  22.975  21.662  0.00  0.00    -0.319 OA
BRANCH  19  20
ATOM     20  C   UNL d   1     -23.877  23.456  20.325  0.00  0.00     0.234 C 
ATOM     21  C   UNL d   1     -22.515  23.887  19.774  0.00  0.00     0.049 C 
BRANCH  20  22
ATOM     22  C   UNL d   1     -24.453  22.343  19.447  0.00  0.00     0.413 C 
ATOM     23  F   UNL d   1     -25.703  21.958  19.942  0.00  0.00    -0.168 F 
ATOM     24  F   UNL d   1     -24.596  22.809  18.136  0.00  0.00    -0.168 F 
ATOM     25  F   UNL d   1     -23.587  21.245  19.459  0.00  0.00    -0.168 F 
ENDBRANCH  20  22
ENDBRANCH  19  20
ENDBRANCH   3  19
BRANCH   4  26
ATOM     26  C   UNL d   1     -22.807  25.104  23.277  0.00  0.00     0.260 C 
ATOM     27  O   UNL d   1     -22.640  26.100  22.600  0.00  0.00    -0.267 OA
ATOM     28  N   UNL d   1     -21.758  24.526  23.897  0.00  0.00    -0.320 N 
ATOM     29  H   UNL d   1     -21.900  23.771  24.489  0.00  0.00     0.169 HD
BRANCH  28  30
ATOM     30  C   UNL d   1     -20.464  25.018  23.687  0.00  0.00     0.073 A 
ATOM     31  C   UNL d   1     -19.685  24.511  22.653  0.00  0.00     0.143 A 
ATOM     32  C   UNL d   1     -18.410  25.004  22.445  0.00  0.00     0.044 A 
ATOM     33  F   UNL d   1     -20.176  23.543  21.848  0.00  0.00    -0.204 F 
ATOM     34  C   UNL d   1     -17.906  25.990  23.273  0.00  0.00     0.003 A 
ATOM     35  C   UNL d   1     -18.676  26.492  24.306  0.00  0.00     0.002 A 
ATOM     36  C   UNL d   1     -19.953  26.008  24.515  0.00  0.00     0.033 A 
ENDBRANCH  28  30
ENDBRANCH   4  26
TORSDOF 9
ENDMDL
