MODEL 1
REMARK VINA RESULT:      -9.5      0.000      0.000
REMARK  6 active torsions:
REMARK  status: ('A' for Active; 'I' for Inactive)
REMARK    1  A    between atoms: C_2  and  N_3 
REMARK    2  A    between atoms: C_4  and  C_5 
REMARK    3  A    between atoms: C_5  and  O_6 
REMARK    4  A    between atoms: N_8  and  C_9 
REMARK    5  A    between atoms: C_12  and  C_13 
REMARK    6  A    between atoms: N_17  and  C_18 
ROOT
ATOM      1  C   UNL d   1     -28.633  22.186  22.134  0.00  0.00     0.195 A 
ATOM      2  N   UNL d   1     -27.966  23.030  22.904  0.00  0.00    -0.225 NA
ATOM      3  C   UNL d   1     -26.654  23.187  22.773  0.00  0.00     0.083 A 
ATOM      4  C   UNL d   1     -25.900  24.112  23.623  0.00  0.00    -0.009 A 
ATOM      5  C   UNL d   1     -24.575  24.240  23.447  0.00  0.00     0.110 A 
ATOM      6  N   UNL d   1     -23.889  23.535  22.500  0.00  0.00    -0.288 N 
ATOM      7  C   UNL d   1     -24.499  22.662  21.673  0.00  0.00     0.264 A 
ATOM      8  O   UNL d   1     -23.857  22.051  20.839  0.00  0.00    -0.267 OA
ATOM      9  C   UNL d   1     -25.944  22.456  21.791  0.00  0.00     0.065 A 
ATOM     10  C   UNL d   1     -26.636  21.565  20.965  0.00  0.00     0.066 A 
ATOM     11  C   UNL d   1     -27.989  21.435  21.146  0.00  0.00     0.165 A 
ATOM     12  F   UNL d   1     -28.699  20.585  20.371  0.00  0.00    -0.202 F 
ENDROOT
BRANCH   1  13
ATOM     13  N   UNL d   1     -30.008  22.047  22.308  0.00  0.00    -0.159 N 
ATOM     14  N   UNL d   1     -30.985  22.145  21.308  0.00  0.00    -0.145 NA
ATOM     15  C   UNL d   1     -32.143  21.960  21.858  0.00  0.00     0.154 A 
ATOM     16  N   UNL d   1     -31.965  21.739  23.202  0.00  0.00    -0.283 N 
ATOM     17  C   UNL d   1     -30.645  21.796  23.470  0.00  0.00     0.352 A 
ATOM     18  O   UNL d   1     -30.124  21.651  24.562  0.00  0.00    -0.244 OA
BRANCH  15  19
ATOM     19  C   UNL d   1     -33.467  21.980  21.140  0.00  0.00     0.244 C 
BRANCH  19  20
ATOM     20  O   UNL d   1     -33.841  20.646  20.790  0.00  0.00    -0.393 OA
ATOM     21  H   UNL d   1     -34.794  20.487  20.809  0.00  0.00     0.209 HD
ENDBRANCH  19  20
ENDBRANCH  15  19
BRANCH  16  22
ATOM     22  C   UNL d   1     -33.029  21.488  24.177  0.00  0.00     0.131 C 
ATOM     23  C   UNL d   1     -33.240  19.980  24.325  0.00  0.00     0.027 C 
ENDBRANCH  16  22
ENDBRANCH   1  13
BRANCH   4  24
ATOM     24  C   UNL d   1     -26.606  24.914  24.685  0.00  0.00     0.014 C 
ATOM     25  C   UNL d   1     -26.920  24.013  25.881  0.00  0.00     0.015 C 
ATOM     26  C   UNL d   1     -25.706  26.067  25.137  0.00  0.00     0.015 C 
ENDBRANCH   4  24
BRANCH   6  27
ATOM     27  C   UNL d   1     -22.507  23.727  22.381  0.00  0.00     0.048 A 
ATOM     28  C   UNL d   1     -21.994  24.441  21.306  0.00  0.00    -0.035 A 
ATOM     29  C   UNL d   1     -20.630  24.630  21.191  0.00  0.00     0.009 A 
ATOM     30  C   UNL d   1     -22.924  25.012  20.266  0.00  0.00     0.050 C 
ATOM     31  C   UNL d   1     -19.777  24.108  22.145  0.00  0.00     0.001 A 
ATOM     32  C   UNL d   1     -20.285  23.395  23.217  0.00  0.00     0.002 A 
ATOM     33  C   UNL d   1     -21.647  23.209  23.340  0.00  0.00     0.030 A 
ENDBRANCH   6  27
TORSDOF 6
ENDMDL
