MODEL 1
REMARK VINA RESULT:     -10.9      0.000      0.000
REMARK  7 active torsions:
REMARK  status: ('A' for Active; 'I' for Inactive)
REMARK    1  A    between atoms: C_2  and  O_3 
REMARK    2  A    between atoms: C_2  and  C_34 
REMARK    3  A    between atoms: O_3  and  C_4 
REMARK    4  A    between atoms: C_6  and  N_7 
REMARK    5  A    between atoms: C_20  and  C_21 
REMARK       I    between atoms: C_21  and  N_23 
REMARK    6  A    between atoms: N_23  and  C_24 
REMARK    7  A    between atoms: C_27  and  C_28 
ROOT
ATOM      1  C   UNL d   1     -24.709  23.360  22.648  0.00  0.00     0.087 A 
ATOM      2  C   UNL d   1     -25.964  22.809  22.840  0.00  0.00     0.073 A 
ATOM      3  C   UNL d   1     -26.818  23.340  23.797  0.00  0.00     0.104 A 
ATOM      4  C   UNL d   1     -26.415  24.429  24.570  0.00  0.00     0.146 A 
ATOM      5  F   UNL d   1     -27.251  24.940  25.501  0.00  0.00    -0.204 F 
ATOM      6  C   UNL d   1     -25.165  24.980  24.392  0.00  0.00     0.064 A 
ATOM      7  C   UNL d   1     -24.302  24.455  23.425  0.00  0.00     0.068 A 
ENDROOT
BRANCH   7   8
ATOM      8  C   UNL d   1     -22.967  25.046  23.227  0.00  0.00     0.259 C 
ATOM      9  O   UNL d   1     -22.856  26.119  22.665  0.00  0.00    -0.267 OA
ATOM     10  N   UNL d   1     -21.871  24.398  23.667  0.00  0.00    -0.323 N 
ATOM     11  H   UNL d   1     -21.953  23.508  24.045  0.00  0.00     0.169 HD
BRANCH  10  12
ATOM     12  C   UNL d   1     -20.615  25.008  23.578  0.00  0.00     0.035 A 
ATOM     13  C   UNL d   1     -20.204  25.900  24.560  0.00  0.00     0.030 A 
ATOM     14  C   UNL d   1     -18.964  26.500  24.470  0.00  0.00     0.018 A 
ATOM     15  C   UNL d   1     -18.129  26.209  23.406  0.00  0.00     0.048 A 
ATOM     16  C   UNL d   1     -18.537  25.325  22.425  0.00  0.00     0.018 A 
ATOM     17  C   UNL d   1     -19.777  24.721  22.509  0.00  0.00     0.030 A 
BRANCH  15  18
ATOM     18  C   UNL d   1     -16.774  26.861  23.314  0.00  0.00     0.417 C 
ATOM     19  F   UNL d   1     -16.440  27.421  24.552  0.00  0.00    -0.166 F 
ATOM     20  F   UNL d   1     -15.817  25.900  22.966  0.00  0.00    -0.166 F 
ATOM     21  F   UNL d   1     -16.803  27.864  22.340  0.00  0.00    -0.166 F 
ENDBRANCH  15  18
ENDBRANCH  10  12
ENDBRANCH   7   8
BRANCH   1  22
ATOM     22  O   UNL d   1     -23.873  22.842  21.711  0.00  0.00    -0.336 OA
BRANCH  22  23
ATOM     23  C   UNL d   1     -23.944  23.404  20.400  0.00  0.00     0.232 C 
ATOM     24  C   UNL d   1     -22.544  23.823  19.948  0.00  0.00     0.049 C 
BRANCH  23  25
ATOM     25  C   UNL d   1     -24.502  22.361  19.428  0.00  0.00     0.413 C 
ATOM     26  F   UNL d   1     -23.652  21.251  19.397  0.00  0.00    -0.168 F 
ATOM     27  F   UNL d   1     -25.774  21.963  19.852  0.00  0.00    -0.168 F 
ATOM     28  F   UNL d   1     -24.590  22.917  18.147  0.00  0.00    -0.168 F 
ENDBRANCH  23  25
ENDBRANCH  22  23
ENDBRANCH   1  22
BRANCH   3  29
ATOM     29  N   UNL d   1     -28.083  22.781  23.987  0.00  0.00    -0.178 N 
ATOM     30  C   UNL d   1     -28.471  22.014  25.028  0.00  0.00     0.351 A 
ATOM     31  N   UNL d   1     -29.766  21.709  24.841  0.00  0.00    -0.284 N 
ATOM     32  O   UNL d   1     -27.777  21.664  25.966  0.00  0.00    -0.244 OA
ATOM     33  C   UNL d   1     -30.174  22.266  23.646  0.00  0.00     0.131 A 
ATOM     34  C   UNL d   1     -30.642  20.944  25.736  0.00  0.00     0.135 C 
ATOM     35  N   UNL d   1     -29.189  22.920  23.133  0.00  0.00    -0.149 NA
ATOM     36  C   UNL d   1     -31.562  22.094  23.072  0.00  0.00     0.081 C 
ATOM     37  C   UNL d   1     -32.493  21.644  24.206  0.00  0.00     0.009 C 
ATOM     38  C   UNL d   1     -31.855  20.457  24.935  0.00  0.00     0.021 C 
ENDBRANCH   3  29
TORSDOF 7
ENDMDL
