MODEL 1
REMARK VINA RESULT:     -10.1      0.000      0.000
REMARK  6 active torsions:
REMARK  status: ('A' for Active; 'I' for Inactive)
REMARK    1  A    between atoms: C_2  and  N_3 
REMARK    2  A    between atoms: C_4  and  C_5 
REMARK    3  A    between atoms: C_5  and  O_6 
REMARK    4  A    between atoms: N_8  and  C_9 
REMARK    5  A    between atoms: C_12  and  C_13 
REMARK    6  A    between atoms: N_17  and  C_18 
ROOT
ATOM      1  C   UNL d   1     -28.937  22.128  22.037  0.00  0.00     0.103 A 
ATOM      2  C   UNL d   1     -28.232  22.943  22.906  0.00  0.00     0.048 A 
ATOM      3  C   UNL d   1     -26.851  23.059  22.767  0.00  0.00    -0.010 A 
ATOM      4  C   UNL d   1     -26.051  23.901  23.660  0.00  0.00    -0.028 A 
ATOM      5  C   UNL d   1     -24.723  23.981  23.475  0.00  0.00     0.103 A 
ATOM      6  N   UNL d   1     -24.081  23.302  22.479  0.00  0.00    -0.318 N 
ATOM      7  C   UNL d   1     -24.736  22.505  21.612  0.00  0.00     0.259 A 
ATOM      8  O   UNL d   1     -24.127  21.917  20.736  0.00  0.00    -0.267 OA
ATOM      9  C   UNL d   1     -26.189  22.355  21.733  0.00  0.00     0.046 A 
ATOM     10  C   UNL d   1     -26.921  21.544  20.865  0.00  0.00     0.062 A 
ATOM     11  C   UNL d   1     -28.275  21.436  21.020  0.00  0.00     0.146 A 
ATOM     12  F   UNL d   1     -28.981  20.649  20.177  0.00  0.00    -0.204 F 
ENDROOT
BRANCH   1  13
ATOM     13  N   UNL d   1     -30.322  22.001  22.174  0.00  0.00    -0.178 N 
ATOM     14  N   UNL d   1     -31.270  22.085  21.146  0.00  0.00    -0.147 NA
ATOM     15  C   UNL d   1     -32.444  21.919  21.665  0.00  0.00     0.154 A 
ATOM     16  N   UNL d   1     -32.307  21.718  23.017  0.00  0.00    -0.283 N 
ATOM     17  C   UNL d   1     -30.994  21.771  23.322  0.00  0.00     0.351 A 
ATOM     18  O   UNL d   1     -30.505  21.634  24.429  0.00  0.00    -0.244 OA
BRANCH  15  19
ATOM     19  C   UNL d   1     -33.748  21.937  20.909  0.00  0.00     0.244 C 
BRANCH  19  20
ATOM     20  O   UNL d   1     -34.577  22.984  21.416  0.00  0.00    -0.393 OA
ATOM     21  H   UNL d   1     -35.182  23.358  20.761  0.00  0.00     0.209 HD
ENDBRANCH  19  20
ENDBRANCH  15  19
BRANCH  16  22
ATOM     22  C   UNL d   1     -33.399  21.485  23.964  0.00  0.00     0.131 C 
ATOM     23  C   UNL d   1     -33.479  19.994  24.294  0.00  0.00     0.027 C 
ENDBRANCH  16  22
ENDBRANCH   1  13
BRANCH   4  24
ATOM     24  C   UNL d   1     -26.711  24.670  24.774  0.00  0.00     0.013 C 
ATOM     25  C   UNL d   1     -26.847  23.771  26.005  0.00  0.00     0.015 C 
ATOM     26  C   UNL d   1     -25.857  25.890  25.126  0.00  0.00     0.015 C 
ENDBRANCH   4  24
BRANCH   6  27
ATOM     27  C   UNL d   1     -22.628  23.446  22.349  0.00  0.00     0.096 C 
ATOM     28  C   UNL d   1     -22.306  24.783  21.678  0.00  0.00     0.005 C 
ATOM     29  C   UNL d   1     -20.789  24.933  21.543  0.00  0.00     0.006 C 
ATOM     30  C   UNL d   1     -22.948  24.825  20.290  0.00  0.00     0.012 C 
ATOM     31  C   UNL d   1     -20.147  24.891  22.932  0.00  0.00     0.001 C 
ATOM     32  C   UNL d   1     -20.469  23.554  23.602  0.00  0.00     0.002 C 
ATOM     33  C   UNL d   1     -21.985  23.404  23.738  0.00  0.00     0.026 C 
ENDBRANCH   6  27
TORSDOF 6
ENDMDL
