MODEL 1
REMARK VINA RESULT:     -10.6      0.000      0.000
REMARK  7 active torsions:
REMARK  status: ('A' for Active; 'I' for Inactive)
REMARK    1  A    between atoms: C_2  and  C_3 
REMARK    2  A    between atoms: C_3  and  C_4 
REMARK    3  A    between atoms: C_4  and  O_6 
REMARK    4  A    between atoms: O_6  and  C_7 
REMARK    5  A    between atoms: C_9  and  N_10 
REMARK    6  A    between atoms: C_23  and  C_24 
REMARK       I    between atoms: C_24  and  N_26 
REMARK    7  A    between atoms: N_26  and  C_27 
ROOT
ATOM      1  C   UNL d   1     -26.168  23.222  23.318  0.00  0.00     0.087 A 
ATOM      2  C   UNL d   1     -27.544  23.071  23.358  0.00  0.00     0.073 A 
ATOM      3  C   UNL d   1     -28.178  22.243  22.443  0.00  0.00     0.104 A 
ATOM      4  C   UNL d   1     -27.434  21.555  21.485  0.00  0.00     0.146 A 
ATOM      5  F   UNL d   1     -28.059  20.746  20.600  0.00  0.00    -0.204 F 
ATOM      6  C   UNL d   1     -26.066  21.703  21.433  0.00  0.00     0.064 A 
ATOM      7  C   UNL d   1     -25.418  22.536  22.352  0.00  0.00     0.068 A 
ENDROOT
BRANCH   7   8
ATOM      8  C   UNL d   1     -23.955  22.691  22.305  0.00  0.00     0.259 C 
ATOM      9  O   UNL d   1     -23.236  21.714  22.391  0.00  0.00    -0.267 OA
ATOM     10  N   UNL d   1     -23.411  23.918  22.167  0.00  0.00    -0.318 N 
ATOM     11  H   UNL d   1     -23.978  24.704  22.178  0.00  0.00     0.169 HD
BRANCH  10  12
ATOM     12  C   UNL d   1     -22.026  24.056  22.007  0.00  0.00     0.113 A 
ATOM     13  C   UNL d   1     -21.188  23.990  23.115  0.00  0.00     0.146 A 
ATOM     14  C   UNL d   1     -19.820  24.125  22.953  0.00  0.00     0.045 A 
ATOM     15  F   UNL d   1     -21.707  23.792  24.346  0.00  0.00    -0.204 F 
ATOM     16  C   UNL d   1     -19.288  24.328  21.692  0.00  0.00     0.006 A 
ATOM     17  C   UNL d   1     -20.118  24.395  20.589  0.00  0.00     0.045 A 
ATOM     18  C   UNL d   1     -21.487  24.253  20.743  0.00  0.00     0.146 A 
ATOM     19  F   UNL d   1     -22.297  24.312  19.663  0.00  0.00    -0.204 F 
ENDBRANCH  10  12
ENDBRANCH   7   8
BRANCH   1  20
ATOM     20  O   UNL d   1     -25.546  24.033  24.212  0.00  0.00    -0.345 OA
BRANCH  20  21
ATOM     21  C   UNL d   1     -25.868  25.424  24.160  0.00  0.00     0.124 C 
ATOM     22  C   UNL d   1     -26.277  25.906  25.553  0.00  0.00     0.040 C 
BRANCH  21  23
ATOM     23  C   UNL d   1     -24.646  26.212  23.686  0.00  0.00     0.032 C 
BRANCH  23  24
ATOM     24  C   UNL d   1     -23.623  26.299  24.821  0.00  0.00    -0.002 C 
ATOM     25  C   UNL d   1     -22.402  27.089  24.347  0.00  0.00     0.005 C 
ENDBRANCH  23  24
ENDBRANCH  21  23
ENDBRANCH  20  21
ENDBRANCH   1  20
BRANCH   3  26
ATOM     26  N   UNL d   1     -29.566  22.093  22.486  0.00  0.00    -0.178 N 
ATOM     27  C   UNL d   1     -30.307  21.804  23.577  0.00  0.00     0.351 A 
ATOM     28  N   UNL d   1     -31.593  21.778  23.194  0.00  0.00    -0.284 N 
ATOM     29  O   UNL d   1     -29.886  21.603  24.703  0.00  0.00    -0.244 OA
ATOM     30  C   UNL d   1     -31.646  22.015  21.835  0.00  0.00     0.131 A 
ATOM     31  C   UNL d   1     -32.773  21.562  24.039  0.00  0.00     0.135 C 
ATOM     32  N   UNL d   1     -30.448  22.211  21.400  0.00  0.00    -0.149 NA
ATOM     33  C   UNL d   1     -32.927  22.025  21.034  0.00  0.00     0.081 C 
ATOM     34  C   UNL d   1     -34.098  22.191  22.013  0.00  0.00     0.009 C 
ATOM     35  C   UNL d   1     -33.952  21.166  23.143  0.00  0.00     0.021 C 
ENDBRANCH   3  26
TORSDOF 7
ENDMDL
