MODEL 1
REMARK VINA RESULT:     -12.1      0.000      0.000
REMARK  4 active torsions:
REMARK  status: ('A' for Active; 'I' for Inactive)
REMARK    1  A    between atoms: C_2  and  O_3 
REMARK    2  A    between atoms: C_2  and  C_4 
REMARK    3  A    between atoms: C_12  and  C_13 
REMARK    4  A    between atoms: C_16  and  C_17 
ROOT
ATOM      1  C   UNL d   1     -32.504  21.600  22.797  0.00  0.00     0.071 A 
ATOM      2  C   UNL d   1     -33.478  21.066  23.639  0.00  0.00     0.063 A 
ATOM      3  C   UNL d   1     -33.136  20.608  24.900  0.00  0.00     0.119 A 
ATOM      4  F   UNL d   1     -34.089  20.089  25.703  0.00  0.00    -0.206 F 
ATOM      5  C   UNL d   1     -31.828  20.682  25.346  0.00  0.00     0.074 A 
ATOM      6  C   UNL d   1     -30.840  21.208  24.528  0.00  0.00     0.067 A 
ATOM      7  N   UNL d   1     -29.481  21.409  24.677  0.00  0.00    -0.338 N 
ATOM      8  H   UNL d   1     -28.948  21.190  25.458  0.00  0.00     0.167 HD
ATOM      9  C   UNL d   1     -29.029  21.972  23.516  0.00  0.00     0.142 A 
ATOM     10  N   UNL d   1     -30.030  22.124  22.679  0.00  0.00    -0.227 NA
ATOM     11  C   UNL d   1     -31.165  21.674  23.241  0.00  0.00     0.103 A 
ENDROOT
BRANCH   9  12
ATOM     12  C   UNL d   1     -27.628  22.353  23.243  0.00  0.00     0.049 A 
ATOM     13  C   UNL d   1     -26.941  21.773  22.172  0.00  0.00     0.131 A 
ATOM     14  C   UNL d   1     -25.634  22.134  21.917  0.00  0.00     0.055 A 
ATOM     15  F   UNL d   1     -27.557  20.865  21.385  0.00  0.00    -0.205 F 
ATOM     16  C   UNL d   1     -24.996  23.067  22.734  0.00  0.00    -0.023 A 
ATOM     17  C   UNL d   1     -25.680  23.641  23.806  0.00  0.00     0.013 A 
ATOM     18  C   UNL d   1     -26.986  23.288  24.060  0.00  0.00     0.019 A 
BRANCH  16  19
ATOM     19  C   UNL d   1     -23.590  23.451  22.462  0.00  0.00    -0.026 A 
ATOM     20  C   UNL d   1     -22.635  23.372  23.476  0.00  0.00     0.012 A 
ATOM     21  C   UNL d   1     -21.328  23.731  23.217  0.00  0.00     0.001 A 
ATOM     22  C   UNL d   1     -20.964  24.169  21.956  0.00  0.00     0.000 A 
ATOM     23  C   UNL d   1     -21.907  24.249  20.947  0.00  0.00     0.001 A 
ATOM     24  C   UNL d   1     -23.216  23.887  21.192  0.00  0.00     0.012 A 
ENDBRANCH  16  19
ENDBRANCH   9  12
BRANCH   1  25
ATOM     25  C   UNL d   1     -32.867  22.081  21.453  0.00  0.00     0.178 C 
ATOM     26  O   UNL d   1     -34.004  22.440  21.223  0.00  0.00    -0.646 OA
BRANCH  25  27
ATOM     27  O   UNL d   1     -31.936  22.123  20.479  0.00  0.00    -0.773 OA
ATOM     28  H   UNL d   1     -31.869  21.349  19.902  0.00  0.00     0.167 HD
ENDBRANCH  25  27
ENDBRANCH   1  25
TORSDOF 4
ENDMDL
