MODEL 1
REMARK VINA RESULT:     -11.1      0.000      0.000
REMARK  5 active torsions:
REMARK  status: ('A' for Active; 'I' for Inactive)
REMARK    1  A    between atoms: C_2  and  O_3 
REMARK    2  A    between atoms: C_2  and  C_4 
REMARK    3  A    between atoms: C_11  and  C_12 
REMARK    4  A    between atoms: C_15  and  O_16 
REMARK    5  A    between atoms: O_16  and  C_17 
ROOT
ATOM      1  C   UNL d   1     -27.541  22.156  22.369  0.00  0.00     0.010 A 
ATOM      2  C   UNL d   1     -26.899  21.527  21.299  0.00  0.00     0.018 A 
ATOM      3  C   UNL d   1     -25.528  21.602  21.180  0.00  0.00     0.038 A 
ATOM      4  C   UNL d   1     -24.784  22.302  22.123  0.00  0.00     0.076 A 
ATOM      5  C   UNL d   1     -25.419  22.924  23.190  0.00  0.00     0.038 A 
ATOM      6  C   UNL d   1     -26.789  22.859  23.314  0.00  0.00     0.018 A 
ENDROOT
BRANCH   1   7
ATOM      7  C   UNL d   1     -29.010  22.078  22.500  0.00  0.00     0.139 A 
ATOM      8  N   UNL d   1     -29.903  22.285  21.485  0.00  0.00    -0.338 N 
ATOM      9  C   UNL d   1     -31.167  22.118  22.020  0.00  0.00     0.064 A 
ATOM     10  H   UNL d   1     -29.690  22.507  20.566  0.00  0.00     0.167 HD
ATOM     11  C   UNL d   1     -32.449  22.198  21.497  0.00  0.00     0.032 A 
ATOM     12  C   UNL d   1     -30.980  21.807  23.379  0.00  0.00     0.102 A 
ATOM     13  C   UNL d   1     -33.546  21.973  22.306  0.00  0.00     0.003 A 
ATOM     14  C   UNL d   1     -33.384  21.667  23.644  0.00  0.00     0.021 A 
ATOM     15  C   UNL d   1     -32.108  21.581  24.197  0.00  0.00     0.068 A 
ATOM     16  N   UNL d   1     -29.655  21.793  23.608  0.00  0.00    -0.227 NA
BRANCH  15  17
ATOM     17  C   UNL d   1     -31.938  21.255  25.623  0.00  0.00     0.178 C 
ATOM     18  O   UNL d   1     -32.577  20.348  26.119  0.00  0.00    -0.646 OA
BRANCH  17  19
ATOM     19  O   UNL d   1     -31.073  21.962  26.377  0.00  0.00    -0.773 OA
ATOM     20  H   UNL d   1     -30.165  21.632  26.428  0.00  0.00     0.167 HD
ENDBRANCH  17  19
ENDBRANCH  15  17
ENDBRANCH   1   7
BRANCH   4  21
ATOM     21  O   UNL d   1     -23.434  22.374  22.003  0.00  0.00    -0.305 OA
BRANCH  21  22
ATOM     22  C   UNL d   1     -22.822  23.537  22.352  0.00  0.00     0.153 A 
ATOM     23  C   UNL d   1     -22.891  24.639  21.509  0.00  0.00     0.153 A 
ATOM     24  C   UNL d   1     -22.267  25.820  21.867  0.00  0.00     0.045 A 
ATOM     25  F   UNL d   1     -23.566  24.556  20.342  0.00  0.00    -0.203 F 
ATOM     26  C   UNL d   1     -21.580  25.907  23.064  0.00  0.00     0.006 A 
ATOM     27  C   UNL d   1     -21.506  24.810  23.902  0.00  0.00     0.045 A 
ATOM     28  C   UNL d   1     -22.127  23.625  23.551  0.00  0.00     0.153 A 
ATOM     29  F   UNL d   1     -22.059  22.555  24.373  0.00  0.00    -0.203 F 
ENDBRANCH  21  22
ENDBRANCH   4  21
TORSDOF 5
ENDMDL
