MODEL 1
REMARK VINA RESULT:      -9.7      0.000      0.000
REMARK  10 active torsions:
REMARK  status: ('A' for Active; 'I' for Inactive)
REMARK    1  A    between atoms: C_2  and  N_3 
REMARK    2  A    between atoms: C_4  and  C_5 
REMARK    3  A    between atoms: C_5  and  O_6 
REMARK    4  A    between atoms: N_8  and  C_9 
REMARK    5  A    between atoms: C_11  and  O_12 
REMARK    6  A    between atoms: O_12  and  C_13 
REMARK    7  A    between atoms: C_13  and  C_15 
REMARK    8  A    between atoms: C_19  and  C_20 
REMARK       I    between atoms: C_20  and  N_22 
REMARK    9  A    between atoms: N_22  and  C_23 
REMARK   10  A    between atoms: C_28  and  O_29 
ROOT
ATOM      1  C   UNL d   1     -26.619  23.499  23.735  0.00  0.00     0.104 A 
ATOM      2  C   UNL d   1     -25.687  23.008  22.831  0.00  0.00     0.073 A 
ATOM      3  C   UNL d   1     -24.431  23.583  22.750  0.00  0.00     0.087 A 
ATOM      4  C   UNL d   1     -24.099  24.655  23.591  0.00  0.00     0.068 A 
ATOM      5  C   UNL d   1     -25.045  25.144  24.500  0.00  0.00     0.064 A 
ATOM      6  C   UNL d   1     -26.294  24.569  24.568  0.00  0.00     0.146 A 
ATOM      7  F   UNL d   1     -27.207  25.041  25.445  0.00  0.00    -0.204 F 
ENDROOT
BRANCH   4   8
ATOM      8  C   UNL d   1     -22.762  25.268  23.516  0.00  0.00     0.259 C 
ATOM      9  O   UNL d   1     -22.597  26.293  22.881  0.00  0.00    -0.267 OA
ATOM     10  N   UNL d   1     -21.720  24.695  24.151  0.00  0.00    -0.319 N 
ATOM     11  H   UNL d   1     -21.841  23.853  24.618  0.00  0.00     0.169 HD
BRANCH  10  12
ATOM     12  C   UNL d   1     -20.464  25.312  24.136  0.00  0.00     0.098 A 
ATOM     13  C   UNL d   1     -19.513  24.933  23.199  0.00  0.00     0.097 A 
ATOM     14  C   UNL d   1     -18.267  25.543  23.192  0.00  0.00     0.092 A 
ATOM     15 CL   UNL d   1     -19.879  23.689  22.044  0.00  0.00    -0.079 Cl
ATOM     16  C   UNL d   1     -17.977  26.535  24.116  0.00  0.00     0.041 A 
ATOM     17  C   UNL d   1     -18.927  26.918  25.045  0.00  0.00     0.047 A 
ATOM     18  C   UNL d   1     -20.169  26.313  25.056  0.00  0.00     0.144 A 
ATOM     19  F   UNL d   1     -21.095  26.689  25.966  0.00  0.00    -0.204 F 
BRANCH  14  20
ATOM     20  O   UNL d   1     -17.333  25.168  22.279  0.00  0.00    -0.354 OA
ATOM     21  C   UNL d   1     -16.035  25.756  22.401  0.00  0.00     0.210 C 
ENDBRANCH  14  20
ENDBRANCH  10  12
ENDBRANCH   4   8
BRANCH   3  22
ATOM     22  O   UNL d   1     -23.520  23.107  21.864  0.00  0.00    -0.336 OA
BRANCH  22  23
ATOM     23  C   UNL d   1     -23.791  23.322  20.478  0.00  0.00     0.232 C 
ATOM     24  C   UNL d   1     -22.497  23.714  19.759  0.00  0.00     0.049 C 
BRANCH  23  25
ATOM     25  C   UNL d   1     -24.346  22.036  19.861  0.00  0.00     0.413 C 
ATOM     26  F   UNL d   1     -25.720  22.180  19.644  0.00  0.00    -0.168 F 
ATOM     27  F   UNL d   1     -23.705  21.787  18.643  0.00  0.00    -0.168 F 
ATOM     28  F   UNL d   1     -24.121  20.966  20.734  0.00  0.00    -0.168 F 
ENDBRANCH  23  25
ENDBRANCH  22  23
ENDBRANCH   3  22
BRANCH   1  29
ATOM     29  N   UNL d   1     -27.888  22.920  23.810  0.00  0.00    -0.178 N 
ATOM     30  N   UNL d   1     -28.925  23.065  22.878  0.00  0.00    -0.147 NA
ATOM     31  C   UNL d   1     -29.941  22.379  23.295  0.00  0.00     0.154 A 
ATOM     32  N   UNL d   1     -29.610  21.776  24.484  0.00  0.00    -0.283 N 
ATOM     33  C   UNL d   1     -28.340  22.111  24.790  0.00  0.00     0.351 A 
ATOM     34  O   UNL d   1     -27.717  21.751  25.774  0.00  0.00    -0.244 OA
BRANCH  31  35
ATOM     35  C   UNL d   1     -31.267  22.261  22.591  0.00  0.00     0.244 C 
BRANCH  35  36
ATOM     36  O   UNL d   1     -31.066  22.332  21.179  0.00  0.00    -0.393 OA
ATOM     37  H   UNL d   1     -31.212  21.495  20.717  0.00  0.00     0.209 HD
ENDBRANCH  35  36
ENDBRANCH  31  35
BRANCH  32  38
ATOM     38  C   UNL d   1     -30.485  20.912  25.280  0.00  0.00     0.131 C 
ATOM     39  C   UNL d   1     -31.655  21.734  25.825  0.00  0.00     0.027 C 
ENDBRANCH  32  38
ENDBRANCH   1  29
TORSDOF 10
ENDMDL
