MODEL 1
REMARK VINA RESULT:     -10.2      0.000      0.000
REMARK  6 active torsions:
REMARK  status: ('A' for Active; 'I' for Inactive)
REMARK    1  A    between atoms: C_8  and  N_9 
REMARK       I    between atoms: N_9  and  C_10 
REMARK    2  A    between atoms: C_10  and  C_12 
REMARK    3  A    between atoms: C_16  and  N_17 
REMARK    4  A    between atoms: C_29  and  O_30 
REMARK    5  A    between atoms: O_30  and  C_31 
REMARK    6  A    between atoms: C_31  and  C_33 
ROOT
ATOM      1  C   UNL d   1     -24.106  24.573  23.615  0.00  0.00     0.068 A 
ATOM      2  C   UNL d   1     -25.025  25.047  24.557  0.00  0.00     0.064 A 
ATOM      3  C   UNL d   1     -26.247  24.428  24.695  0.00  0.00     0.146 A 
ATOM      4  F   UNL d   1     -27.138  24.889  25.602  0.00  0.00    -0.204 F 
ATOM      5  C   UNL d   1     -26.567  23.323  23.907  0.00  0.00     0.104 A 
ATOM      6  C   UNL d   1     -25.660  22.847  22.971  0.00  0.00     0.073 A 
ATOM      7  C   UNL d   1     -24.431  23.466  22.819  0.00  0.00     0.087 A 
ENDROOT
BRANCH   1   8
ATOM      8  C   UNL d   1     -22.800  25.237  23.460  0.00  0.00     0.259 C 
ATOM      9  N   UNL d   1     -21.682  24.642  23.922  0.00  0.00    -0.320 N 
ATOM     10  H   UNL d   1     -21.721  23.735  24.264  0.00  0.00     0.169 HD
ATOM     11  O   UNL d   1     -22.730  26.322  22.915  0.00  0.00    -0.267 OA
BRANCH   9  12
ATOM     12  C   UNL d   1     -20.465  25.333  23.909  0.00  0.00     0.081 A 
ATOM     13  C   UNL d   1     -19.522  25.080  22.924  0.00  0.00     0.058 A 
ATOM     14  C   UNL d   1     -19.811  24.051  21.860  0.00  0.00     0.073 C 
ATOM     15  N   UNL d   1     -18.375  25.729  22.908  0.00  0.00    -0.264 NA
ATOM     16  C   UNL d   1     -18.077  26.637  23.816  0.00  0.00     0.118 A 
ATOM     17  C   UNL d   1     -18.964  26.946  24.830  0.00  0.00     0.045 A 
ATOM     18  C   UNL d   1     -20.186  26.291  24.883  0.00  0.00     0.064 A 
ATOM     19 CL   UNL d   1     -21.335  26.651  26.134  0.00  0.00    -0.082 Cl
ENDBRANCH   9  12
ENDBRANCH   1   8
BRANCH   7  20
ATOM     20  O   UNL d   1     -23.543  23.000  21.904  0.00  0.00    -0.336 OA
BRANCH  20  21
ATOM     21  C   UNL d   1     -23.836  23.255  20.529  0.00  0.00     0.232 C 
ATOM     22  C   UNL d   1     -22.548  23.628  19.793  0.00  0.00     0.049 C 
BRANCH  21  23
ATOM     23  C   UNL d   1     -24.439  21.999  19.896  0.00  0.00     0.413 C 
ATOM     24  F   UNL d   1     -24.195  20.897  20.723  0.00  0.00    -0.168 F 
ATOM     25  F   UNL d   1     -25.819  22.170  19.743  0.00  0.00    -0.168 F 
ATOM     26  F   UNL d   1     -23.854  21.781  18.644  0.00  0.00    -0.168 F 
ENDBRANCH  21  23
ENDBRANCH  20  21
ENDBRANCH   7  20
BRANCH   5  27
ATOM     27  N   UNL d   1     -27.807  22.697  24.057  0.00  0.00    -0.178 N 
ATOM     28  C   UNL d   1     -28.808  22.676  23.147  0.00  0.00     0.351 A 
ATOM     29  N   UNL d   1     -29.816  21.980  23.680  0.00  0.00    -0.282 N 
ATOM     30  O   UNL d   1     -28.793  23.196  22.045  0.00  0.00    -0.244 OA
ATOM     31  C   UNL d   1     -29.433  21.553  24.944  0.00  0.00     0.155 A 
ATOM     32  C   UNL d   1     -31.136  21.666  23.113  0.00  0.00     0.137 C 
ATOM     33  N   UNL d   1     -28.245  21.975  25.180  0.00  0.00    -0.147 NA
ATOM     34  C   UNL d   1     -30.347  20.728  25.828  0.00  0.00     0.248 C 
ATOM     35  O   UNL d   1     -31.474  21.546  26.166  0.00  0.00    -0.384 OA
ATOM     36  C   UNL d   1     -32.515  21.605  25.214  0.00  0.00     0.169 C 
ATOM     37  C   UNL d   1     -32.190  22.387  23.963  0.00  0.00     0.046 C 
ENDBRANCH   5  27
TORSDOF 6
ENDMDL
