MODEL 1
REMARK VINA RESULT:     -10.4      0.000      0.000
REMARK  4 active torsions:
REMARK  status: ('A' for Active; 'I' for Inactive)
REMARK    1  A    between atoms: C_7  and  N_8 
REMARK    2  A    between atoms: C_16  and  N_17 
REMARK       I    between atoms: N_17  and  C_18 
REMARK    3  A    between atoms: C_18  and  C_20 
REMARK    4  A    between atoms: C_25  and  O_26 
ROOT
ATOM      1  N   UNL d   1     -24.395  23.985  23.438  0.00  0.00    -0.237 N 
ATOM      2  N   UNL d   1     -25.377  24.520  24.286  0.00  0.00    -0.179 NA
ATOM      3  C   UNL d   1     -26.534  24.001  23.955  0.00  0.00     0.150 A 
ATOM      4  C   UNL d   1     -26.327  23.117  22.897  0.00  0.00     0.008 A 
ATOM      5  C   UNL d   1     -25.002  23.126  22.597  0.00  0.00     0.046 A 
ATOM      6  C   UNL d   1     -24.377  22.301  21.502  0.00  0.00     0.060 C 
ATOM      7  C   UNL d   1     -25.492  21.813  20.568  0.00  0.00     0.008 C 
ATOM      8  C   UNL d   1     -26.614  21.182  21.396  0.00  0.00     0.030 C 
ATOM      9  C   UNL d   1     -27.351  22.276  22.179  0.00  0.00     0.121 C 
ENDROOT
BRANCH   9  10
ATOM     10  N   UNL d   1     -28.255  21.660  23.153  0.00  0.00    -0.348 N 
ATOM     11  C   UNL d   1     -29.510  22.130  23.299  0.00  0.00     0.256 C 
ATOM     12  O   UNL d   1     -29.891  23.066  22.621  0.00  0.00    -0.267 OA
ATOM     13  H   UNL d   1     -27.952  20.914  23.694  0.00  0.00     0.163 HD
BRANCH  11  14
ATOM     14  C   UNL d   1     -30.422  21.512  24.280  0.00  0.00     0.084 A 
ATOM     15  C   UNL d   1     -29.962  21.153  25.555  0.00  0.00     0.177 A 
ATOM     16  N   UNL d   1     -30.785  20.600  26.431  0.00  0.00    -0.236 NA
ATOM     17  C   UNL d   1     -32.050  20.366  26.145  0.00  0.00     0.119 A 
ATOM     18  C   UNL d   1     -32.578  20.691  24.907  0.00  0.00     0.020 A 
ATOM     19  C   UNL d   1     -31.764  21.278  23.955  0.00  0.00     0.023 A 
BRANCH  15  20
ATOM     20  O   UNL d   1     -28.670  21.375  25.892  0.00  0.00    -0.344 OA
ATOM     21  H   UNL d   1     -28.068  20.665  25.631  0.00  0.00     0.219 HD
ENDBRANCH  15  20
ENDBRANCH  11  14
ENDBRANCH   9  10
BRANCH   1  22
ATOM     22  C   UNL d   1     -23.027  24.285  23.466  0.00  0.00     0.064 A 
ATOM     23  C   UNL d   1     -22.599  25.595  23.299  0.00  0.00    -0.033 A 
ATOM     24  C   UNL d   1     -23.606  26.697  23.087  0.00  0.00     0.050 C 
ATOM     25  C   UNL d   1     -21.250  25.889  23.326  0.00  0.00     0.009 A 
ATOM     26  C   UNL d   1     -20.326  24.881  23.525  0.00  0.00     0.001 A 
ATOM     27  C   UNL d   1     -20.748  23.573  23.687  0.00  0.00     0.002 A 
ATOM     28  C   UNL d   1     -22.096  23.274  23.660  0.00  0.00     0.032 A 
ENDBRANCH   1  22
TORSDOF 4
ENDMDL
