MODEL 1
REMARK VINA RESULT:     -10.6      0.000      0.000
REMARK  7 active torsions:
REMARK  status: ('A' for Active; 'I' for Inactive)
REMARK    1  A    between atoms: C_2  and  O_3 
REMARK    2  A    between atoms: O_3  and  C_4 
REMARK    3  A    between atoms: C_4  and  C_6 
REMARK    4  A    between atoms: C_8  and  N_9 
REMARK    5  A    between atoms: N_9  and  C_10 
REMARK    6  A    between atoms: C_15  and  C_16 
REMARK    7  A    between atoms: C_22  and  C_23 
ROOT
ATOM      1  C   UNL d   1     -29.589  21.705  25.152  0.00  0.00     0.113 A 
ATOM      2  S   UNL d   1     -28.033  22.000  25.924  0.00  0.00    -0.044 SA
ATOM      3  C   UNL d   1     -27.462  22.780  24.516  0.00  0.00     0.172 A 
ATOM      4  N   UNL d   1     -28.378  22.798  23.593  0.00  0.00    -0.222 NA
ATOM      5  C   UNL d   1     -29.531  22.232  23.878  0.00  0.00     0.093 A 
ENDROOT
BRANCH   3   6
ATOM      6  N   UNL d   1     -26.202  23.322  24.377  0.00  0.00    -0.335 N 
ATOM      7  H   UNL d   1     -25.805  23.821  25.108  0.00  0.00     0.168 HD
BRANCH   6   8
ATOM      8  C   UNL d   1     -25.496  23.153  23.181  0.00  0.00     0.035 A 
ATOM      9  C   UNL d   1     -24.431  23.992  22.877  0.00  0.00     0.047 A 
ATOM     10  C   UNL d   1     -23.733  23.819  21.699  0.00  0.00     0.071 A 
ATOM     11  C   UNL d   1     -24.099  22.819  20.816  0.00  0.00     0.049 A 
ATOM     12  C   UNL d   1     -25.160  21.982  21.115  0.00  0.00     0.027 A 
ATOM     13 CL   UNL d   1     -23.222  22.609  19.331  0.00  0.00    -0.083 Cl
ATOM     14  C   UNL d   1     -25.858  22.147  22.295  0.00  0.00     0.031 A 
BRANCH  10  15
ATOM     15  C   UNL d   1     -22.573  24.725  21.371  0.00  0.00     0.419 C 
ATOM     16  F   UNL d   1     -22.454  25.706  22.361  0.00  0.00    -0.166 F 
ATOM     17  F   UNL d   1     -21.395  23.973  21.316  0.00  0.00    -0.166 F 
ATOM     18  F   UNL d   1     -22.795  25.337  20.133  0.00  0.00    -0.166 F 
ENDBRANCH  10  15
ENDBRANCH   6   8
ENDBRANCH   3   6
BRANCH   1  19
ATOM     19  C   UNL d   1     -30.697  21.046  25.735  0.00  0.00     0.302 C 
ATOM     20  O   UNL d   1     -31.440  21.652  26.485  0.00  0.00    -0.259 OA
BRANCH  19  21
ATOM     21  O   UNL d   1     -30.930  19.746  25.460  0.00  0.00    -0.317 OA
BRANCH  21  22
ATOM     22  C   UNL d   1     -32.215  19.229  25.811  0.00  0.00     0.174 C 
ATOM     23  C   UNL d   1     -32.045  17.930  26.603  0.00  0.00     0.034 C 
ENDBRANCH  21  22
ENDBRANCH  19  21
ENDBRANCH   1  19
BRANCH   5  24
ATOM     24  C   UNL d   1     -30.664  22.173  22.925  0.00  0.00    -0.006 A 
ATOM     25  C   UNL d   1     -31.976  22.133  23.396  0.00  0.00     0.014 A 
ATOM     26  C   UNL d   1     -33.026  22.078  22.504  0.00  0.00     0.001 A 
ATOM     27  C   UNL d   1     -32.780  22.064  21.142  0.00  0.00     0.000 A 
ATOM     28  C   UNL d   1     -31.481  22.104  20.668  0.00  0.00     0.001 A 
ATOM     29  C   UNL d   1     -30.423  22.164  21.551  0.00  0.00     0.014 A 
ENDBRANCH   5  24
TORSDOF 7
ENDMDL
