MODEL 1
REMARK VINA RESULT:     -11.0      0.000      0.000
REMARK  7 active torsions:
REMARK  status: ('A' for Active; 'I' for Inactive)
REMARK    1  A    between atoms: C_2  and  O_3 
REMARK    2  A    between atoms: C_2  and  C_4 
REMARK    3  A    between atoms: C_5  and  C_6 
REMARK       I    between atoms: C_6  and  N_8 
REMARK    4  A    between atoms: N_8  and  C_9 
REMARK    5  A    between atoms: C_14  and  C_15 
REMARK    6  A    between atoms: C_19  and  O_20 
REMARK    7  A    between atoms: O_20  and  C_21 
ROOT
ATOM      1  C   UNL d   1     -27.067  22.149  23.199  0.00  0.00     0.119 A 
ATOM      2  C   UNL d   1     -26.414  23.166  23.890  0.00  0.00     0.185 A 
ATOM      3  F   UNL d   1     -26.965  23.682  25.010  0.00  0.00    -0.200 F 
ATOM      4  C   UNL d   1     -25.203  23.648  23.430  0.00  0.00     0.171 A 
ATOM      5  F   UNL d   1     -24.570  24.636  24.100  0.00  0.00    -0.202 F 
ATOM      6  C   UNL d   1     -24.635  23.114  22.273  0.00  0.00     0.058 A 
ATOM      7  C   UNL d   1     -25.295  22.097  21.579  0.00  0.00     0.171 A 
ATOM      8  F   UNL d   1     -24.750  21.582  20.454  0.00  0.00    -0.202 F 
ATOM      9  C   UNL d   1     -26.503  21.616  22.045  0.00  0.00     0.185 A 
ATOM     10  F   UNL d   1     -27.140  20.628  21.378  0.00  0.00    -0.200 F 
ENDROOT
BRANCH   1  11
ATOM     11  N   UNL d   1     -28.293  21.664  23.667  0.00  0.00    -0.318 N 
ATOM     12  C   UNL d   1     -29.438  22.291  23.332  0.00  0.00     0.253 C 
ATOM     13  O   UNL d   1     -29.415  23.216  22.544  0.00  0.00    -0.268 OA
ATOM     14  H   UNL d   1     -28.319  20.875  24.231  0.00  0.00     0.169 HD
BRANCH  12  15
ATOM     15  C   UNL d   1     -30.717  21.855  23.923  0.00  0.00     0.033 C 
ATOM     16  C   UNL d   1     -30.812  21.519  25.200  0.00  0.00     0.037 C 
ATOM     17  C   UNL d   1     -32.175  21.088  25.696  0.00  0.00     0.120 C 
ATOM     18  S   UNL d   1     -33.081  20.728  24.139  0.00  0.00    -0.159 SA
ATOM     19  C   UNL d   1     -31.985  21.778  23.099  0.00  0.00     0.119 C 
BRANCH  16  20
ATOM     20  C   UNL d   1     -29.643  21.564  26.097  0.00  0.00     0.173 C 
ATOM     21  O   UNL d   1     -29.423  22.558  26.761  0.00  0.00    -0.646 OA
BRANCH  20  22
ATOM     22  O   UNL d   1     -28.818  20.502  26.182  0.00  0.00    -0.773 OA
ATOM     23  H   UNL d   1     -28.586  20.195  27.069  0.00  0.00     0.167 HD
ENDBRANCH  20  22
ENDBRANCH  16  20
ENDBRANCH  12  15
ENDBRANCH   1  11
BRANCH   6  24
ATOM     24  C   UNL d   1     -23.335  23.629  21.777  0.00  0.00    -0.017 A 
ATOM     25  C   UNL d   1     -22.202  23.559  22.583  0.00  0.00     0.049 A 
ATOM     26  C   UNL d   1     -20.990  24.036  22.111  0.00  0.00     0.079 A 
ATOM     27  C   UNL d   1     -20.909  24.588  20.840  0.00  0.00     0.037 A 
ATOM     28  C   UNL d   1     -22.035  24.663  20.042  0.00  0.00     0.004 A 
ATOM     29  C   UNL d   1     -23.246  24.190  20.502  0.00  0.00     0.012 A 
BRANCH  26  30
ATOM     30  O   UNL d   1     -19.881  23.964  22.893  0.00  0.00    -0.255 OA
BRANCH  30  31
ATOM     31  C   UNL d   1     -19.454  25.172  23.525  0.00  0.00     0.530 C 
ATOM     32  F   UNL d   1     -20.538  26.050  23.634  0.00  0.00    -0.144 F 
ATOM     33  F   UNL d   1     -18.959  24.881  24.801  0.00  0.00    -0.144 F 
ATOM     34  F   UNL d   1     -18.447  25.768  22.759  0.00  0.00    -0.144 F 
ENDBRANCH  30  31
ENDBRANCH  26  30
ENDBRANCH   6  24
TORSDOF 7
ENDMDL
