MODEL 1
REMARK VINA RESULT:      -7.9      0.000      0.000
REMARK  6 active torsions:
REMARK  status: ('A' for Active; 'I' for Inactive)
REMARK    1  A    between atoms: C_2  and  O_3 
REMARK    2  A    between atoms: C_2  and  C_32 
REMARK    3  A    between atoms: O_3  and  C_4 
REMARK    4  A    between atoms: C_6  and  N_7 
REMARK    5  A    between atoms: C_20  and  C_21 
REMARK       I    between atoms: C_21  and  N_23 
REMARK    6  A    between atoms: N_23  and  C_24 
ROOT
ATOM      1  C   UNL d   1     -19.528  26.104  25.009  0.00  0.00     0.087 A 
ATOM      2  C   UNL d   1     -20.239  25.294  24.141  0.00  0.00     0.073 A 
ATOM      3  C   UNL d   1     -21.550  25.610  23.811  0.00  0.00     0.104 A 
ATOM      4  C   UNL d   1     -22.156  26.745  24.351  0.00  0.00     0.146 A 
ATOM      5  F   UNL d   1     -23.432  27.047  24.025  0.00  0.00    -0.204 F 
ATOM      6  C   UNL d   1     -21.457  27.557  25.214  0.00  0.00     0.064 A 
ATOM      7  C   UNL d   1     -20.137  27.242  25.557  0.00  0.00     0.068 A 
ENDROOT
BRANCH   7   8
ATOM      8  C   UNL d   1     -19.388  28.105  26.486  0.00  0.00     0.259 C 
ATOM      9  O   UNL d   1     -19.840  28.348  27.589  0.00  0.00    -0.267 OA
ATOM     10  N   UNL d   1     -18.202  28.627  26.114  0.00  0.00    -0.320 N 
ATOM     11  H   UNL d   1     -17.878  28.497  25.208  0.00  0.00     0.169 HD
BRANCH  10  12
ATOM     12  C   UNL d   1     -17.437  29.355  27.034  0.00  0.00     0.074 A 
ATOM     13  C   UNL d   1     -17.619  30.727  27.159  0.00  0.00     0.146 A 
ATOM     14  C   UNL d   1     -16.861  31.444  28.069  0.00  0.00     0.086 A 
ATOM     15  F   UNL d   1     -18.534  31.361  26.394  0.00  0.00    -0.204 F 
ATOM     16  C   UNL d   1     -15.925  30.792  28.854  0.00  0.00     0.119 A 
ATOM     17  C   UNL d   1     -15.743  29.426  28.730  0.00  0.00     0.044 A 
ATOM     18  F   UNL d   1     -15.186  31.494  29.742  0.00  0.00    -0.206 F 
ATOM     19  C   UNL d   1     -16.501  28.705  27.827  0.00  0.00     0.036 A 
ENDBRANCH  10  12
ENDBRANCH   7   8
BRANCH   1  20
ATOM     20  O   UNL d   1     -18.247  25.795  25.333  0.00  0.00    -0.345 OA
BRANCH  20  21
ATOM     21  C   UNL d   1     -17.327  25.630  24.252  0.00  0.00     0.129 C 
ATOM     22  C   UNL d   1     -17.441  26.821  23.298  0.00  0.00     0.040 C 
BRANCH  21  23
ATOM     23  C   UNL d   1     -15.902  25.554  24.804  0.00  0.00     0.015 C 
ATOM     24  C   UNL d   1     -15.952  25.361  26.321  0.00  0.00     0.007 C 
ATOM     25  C   UNL d   1     -14.527  25.285  26.872  0.00  0.00     0.000 C 
ATOM     26  C   UNL d   1     -13.783  26.581  26.547  0.00  0.00     0.000 C 
ATOM     27  C   UNL d   1     -13.733  26.773  25.030  0.00  0.00     0.000 C 
ATOM     28  C   UNL d   1     -15.158  26.850  24.479  0.00  0.00     0.007 C 
ENDBRANCH  21  23
ENDBRANCH  20  21
ENDBRANCH   1  20
BRANCH   3  29
ATOM     29  N   UNL d   1     -22.264  24.790  22.935  0.00  0.00    -0.178 N 
ATOM     30  C   UNL d   1     -22.076  24.688  21.601  0.00  0.00     0.351 A 
ATOM     31  N   UNL d   1     -22.946  23.774  21.142  0.00  0.00    -0.284 N 
ATOM     32  O   UNL d   1     -21.266  25.310  20.937  0.00  0.00    -0.244 OA
ATOM     33  C   UNL d   1     -23.709  23.331  22.202  0.00  0.00     0.131 A 
ATOM     34  C   UNL d   1     -23.080  23.281  19.766  0.00  0.00     0.135 C 
ATOM     35  N   UNL d   1     -23.306  23.915  23.278  0.00  0.00    -0.149 NA
ATOM     36  C   UNL d   1     -24.834  22.330  22.065  0.00  0.00     0.081 C 
ATOM     37  C   UNL d   1     -24.655  21.594  20.731  0.00  0.00     0.009 C 
ATOM     38  C   UNL d   1     -24.456  22.623  19.614  0.00  0.00     0.021 C 
ENDBRANCH   3  29
TORSDOF 6
ENDMDL
