MODEL 1
REMARK VINA RESULT:     -13.9      0.000      0.000
REMARK  6 active torsions:
REMARK  status: ('A' for Active; 'I' for Inactive)
REMARK    1  A    between atoms: C_3  and  C_4 
REMARK       I    between atoms: C_4  and  N_6 
REMARK    2  A    between atoms: N_6  and  C_7 
REMARK    3  A    between atoms: C_11  and  C_12 
REMARK    4  A    between atoms: C_26  and  C_27 
REMARK    5  A    between atoms: C_33  and  C_34 
REMARK    6  A    between atoms: C_34  and  O_36 
ROOT
ATOM      1  C   UNL d   1     -28.014  21.984  26.325  0.00  0.00     0.052 C 
ATOM      2  C   UNL d   1     -28.700  22.122  24.990  0.00  0.00    -0.010 A 
ATOM      3  C   UNL d   1     -28.037  22.729  23.913  0.00  0.00     0.132 A 
ATOM      4  N   UNL d   1     -28.611  22.863  22.735  0.00  0.00    -0.242 NA
ATOM      5  C   UNL d   1     -29.849  22.430  22.503  0.00  0.00     0.069 A 
ATOM      6  C   UNL d   1     -30.444  22.583  21.235  0.00  0.00     0.033 A 
ATOM      7  C   UNL d   1     -31.709  22.133  21.024  0.00  0.00     0.018 A 
ATOM      8  C   UNL d   1     -32.432  21.517  22.045  0.00  0.00     0.048 A 
ATOM      9  C   UNL d   1     -31.890  21.351  23.284  0.00  0.00     0.031 A 
ATOM     10  C   UNL d   1     -30.588  21.798  23.537  0.00  0.00     0.011 A 
ATOM     11  C   UNL d   1     -29.993  21.648  24.816  0.00  0.00     0.058 A 
ENDROOT
BRANCH   3  12
ATOM     12  C   UNL d   1     -26.656  23.234  24.107  0.00  0.00     0.275 C 
ATOM     13  O   UNL d   1     -26.146  23.198  25.208  0.00  0.00    -0.266 OA
ATOM     14  N   UNL d   1     -25.969  23.732  23.060  0.00  0.00    -0.317 N 
ATOM     15  H   UNL d   1     -26.391  23.797  22.189  0.00  0.00     0.169 HD
BRANCH  14  16
ATOM     16  C   UNL d   1     -24.647  24.155  23.230  0.00  0.00     0.113 A 
ATOM     17  C   UNL d   1     -23.597  23.275  22.987  0.00  0.00     0.147 A 
ATOM     18  C   UNL d   1     -22.291  23.692  23.155  0.00  0.00     0.057 A 
ATOM     19  F   UNL d   1     -23.857  22.011  22.588  0.00  0.00    -0.204 F 
ATOM     20  C   UNL d   1     -22.025  24.996  23.568  0.00  0.00    -0.020 A 
ATOM     21  C   UNL d   1     -23.077  25.878  23.812  0.00  0.00     0.057 A 
ATOM     22  C   UNL d   1     -24.381  25.460  23.637  0.00  0.00     0.147 A 
ATOM     23  F   UNL d   1     -25.401  26.315  23.868  0.00  0.00    -0.204 F 
BRANCH  20  24
ATOM     24  C   UNL d   1     -20.623  25.445  23.749  0.00  0.00    -0.023 A 
ATOM     25  C   UNL d   1     -19.644  25.066  22.834  0.00  0.00     0.054 A 
ATOM     26  C   UNL d   1     -18.340  25.492  23.005  0.00  0.00     0.117 A 
ATOM     27  C   UNL d   1     -18.005  26.285  24.091  0.00  0.00     0.042 A 
ATOM     28  F   UNL d   1     -17.389  25.130  22.116  0.00  0.00    -0.206 F 
ATOM     29  C   UNL d   1     -18.974  26.658  25.004  0.00  0.00     0.004 A 
ATOM     30  C   UNL d   1     -20.279  26.242  24.840  0.00  0.00     0.012 A 
ENDBRANCH  20  24
ENDBRANCH  14  16
ENDBRANCH   3  12
BRANCH  11  31
ATOM     31  C   UNL d   1     -30.724  21.001  25.926  0.00  0.00     0.177 C 
ATOM     32  O   UNL d   1     -31.541  21.632  26.565  0.00  0.00    -0.646 OA
BRANCH  31  33
ATOM     33  O   UNL d   1     -30.488  19.709  26.226  0.00  0.00    -0.773 OA
ATOM     34  H   UNL d   1     -29.790  19.263  25.726  0.00  0.00     0.167 HD
ENDBRANCH  31  33
ENDBRANCH  11  31
BRANCH   8  35
ATOM     35  C   UNL d   1     -33.833  21.030  21.774  0.00  0.00     0.417 C 
ATOM     36  F   UNL d   1     -33.811  20.108  20.723  0.00  0.00    -0.166 F 
ATOM     37  F   UNL d   1     -34.343  20.415  22.923  0.00  0.00    -0.166 F 
ATOM     38  F   UNL d   1     -34.645  22.114  21.427  0.00  0.00    -0.166 F 
ENDBRANCH   8  35
TORSDOF 6
ENDMDL
