MODEL 1
REMARK VINA RESULT:     -11.3      0.000      0.000
REMARK  8 active torsions:
REMARK  status: ('A' for Active; 'I' for Inactive)
REMARK    1  A    between atoms: O_2  and  C_3 
REMARK    2  A    between atoms: C_5  and  C_6 
REMARK    3  A    between atoms: C_8  and  C_9 
REMARK    4  A    between atoms: C_9  and  O_11 
REMARK    5  A    between atoms: C_21  and  O_22 
REMARK    6  A    between atoms: O_22  and  C_23 
REMARK    7  A    between atoms: C_23  and  C_24 
REMARK       I    between atoms: C_24  and  N_26 
REMARK    8  A    between atoms: N_26  and  C_27 
ROOT
ATOM      1  C   UNL d   1     -25.501  23.143  23.084  0.00  0.00     0.102 A 
ATOM      2  C   UNL d   1     -26.854  23.011  23.334  0.00  0.00     0.053 A 
ATOM      3  C   UNL d   1     -27.620  22.135  22.565  0.00  0.00    -0.004 A 
ATOM      4  C   UNL d   1     -27.020  21.400  21.544  0.00  0.00     0.017 A 
ATOM      5  C   UNL d   1     -25.670  21.538  21.295  0.00  0.00     0.040 A 
ATOM      6  C   UNL d   1     -24.907  22.409  22.060  0.00  0.00     0.102 A 
ENDROOT
BRANCH   3   7
ATOM      7  C   UNL d   1     -29.070  21.986  22.833  0.00  0.00     0.069 A 
ATOM      8  N   UNL d   1     -29.917  22.116  21.833  0.00  0.00    -0.247 NA
ATOM      9  C   UNL d   1     -31.236  21.990  21.994  0.00  0.00     0.068 A 
ATOM     10  C   UNL d   1     -31.769  21.717  23.278  0.00  0.00     0.010 A 
ATOM     11  C   UNL d   1     -32.116  22.128  20.906  0.00  0.00     0.032 A 
ATOM     12  C   UNL d   1     -30.848  21.573  24.406  0.00  0.00     0.052 A 
ATOM     13  C   UNL d   1     -33.153  21.590  23.445  0.00  0.00     0.015 A 
ATOM     14  C   UNL d   1     -29.493  21.715  24.144  0.00  0.00     0.051 A 
ATOM     15  C   UNL d   1     -33.976  21.731  22.367  0.00  0.00     0.001 A 
ATOM     16  C   UNL d   1     -33.457  22.000  21.102  0.00  0.00     0.002 A 
BRANCH  12  17
ATOM     17  C   UNL d   1     -31.341  21.287  25.771  0.00  0.00     0.177 C 
ATOM     18  O   UNL d   1     -31.738  22.193  26.474  0.00  0.00    -0.646 OA
BRANCH  17  19
ATOM     19  O   UNL d   1     -31.349  20.022  26.233  0.00  0.00    -0.773 OA
ATOM     20  H   UNL d   1     -30.584  19.472  26.021  0.00  0.00     0.167 HD
ENDBRANCH  17  19
ENDBRANCH  12  17
ENDBRANCH   3   7
BRANCH   1  21
ATOM     21  O   UNL d   1     -24.750  23.992  23.837  0.00  0.00    -0.353 OA
ATOM     22  C   UNL d   1     -25.162  25.359  23.878  0.00  0.00     0.210 C 
ENDBRANCH   1  21
BRANCH   6  23
ATOM     23  O   UNL d   1     -23.577  22.542  21.812  0.00  0.00    -0.339 OA
BRANCH  23  24
ATOM     24  C   UNL d   1     -23.174  23.652  21.007  0.00  0.00     0.278 C 
BRANCH  24  25
ATOM     25  C   UNL d   1     -22.144  24.463  21.748  0.00  0.00     0.246 C 
ATOM     26  O   UNL d   1     -21.473  25.281  21.154  0.00  0.00    -0.271 OA
ATOM     27  N   UNL d   1     -21.965  24.280  23.072  0.00  0.00    -0.325 N 
ATOM     28  H   UNL d   1     -22.445  23.573  23.532  0.00  0.00     0.169 HD
BRANCH  27  29
ATOM     29  C   UNL d   1     -21.091  25.108  23.782  0.00  0.00     0.034 A 
ATOM     30  C   UNL d   1     -21.546  26.307  24.317  0.00  0.00     0.029 A 
ATOM     31  C   UNL d   1     -20.681  27.123  25.017  0.00  0.00     0.002 A 
ATOM     32  C   UNL d   1     -19.361  26.748  25.187  0.00  0.00     0.000 A 
ATOM     33  C   UNL d   1     -18.903  25.557  24.656  0.00  0.00     0.002 A 
ATOM     34  C   UNL d   1     -19.766  24.734  23.958  0.00  0.00     0.029 A 
ENDBRANCH  27  29
ENDBRANCH  24  25
ENDBRANCH  23  24
ENDBRANCH   6  23
TORSDOF 8
ENDMDL
