MODEL 1
REMARK VINA RESULT:      -8.3      0.000      0.000
REMARK  5 active torsions:
REMARK  status: ('A' for Active; 'I' for Inactive)
REMARK    1  A    between atoms: C_6  and  C_7 
REMARK    2  A    between atoms: C_7  and  S_8 
REMARK    3  A    between atoms: N_9  and  C_10 
REMARK    4  A    between atoms: C_13  and  O_14 
REMARK    5  A    between atoms: O_14  and  C_15 
ROOT
ATOM      1  C   UNL d   1     -28.552  22.129  23.260  0.00  0.00     0.058 A 
ATOM      2  C   UNL d   1     -28.774  21.537  24.505  0.00  0.00     0.034 A 
ATOM      3  C   UNL d   1     -30.062  21.374  24.970  0.00  0.00     0.039 A 
ATOM      4  C   UNL d   1     -31.138  21.790  24.199  0.00  0.00     0.078 A 
ATOM      5  C   UNL d   1     -30.922  22.384  22.962  0.00  0.00     0.039 A 
ATOM      6  C   UNL d   1     -29.638  22.552  22.490  0.00  0.00     0.034 A 
ENDROOT
BRANCH   1   7
ATOM      7  N   UNL d   1     -27.275  22.294  22.794  0.00  0.00    -0.241 NA
ATOM      8  C   UNL d   1     -26.430  23.054  23.451  0.00  0.00     0.105 C 
BRANCH   8   9
ATOM      9  C   UNL d   1     -25.053  23.231  22.949  0.00  0.00     0.050 A 
ATOM     10  C   UNL d   1     -24.370  22.450  22.052  0.00  0.00     0.089 A 
ATOM     11  C   UNL d   1     -24.876  21.211  21.362  0.00  0.00     0.080 C 
ATOM     12  O   UNL d   1     -23.165  23.012  21.911  0.00  0.00    -0.218 OA
ATOM     13  N   UNL d   1     -23.042  24.000  22.598  0.00  0.00    -0.140 NA
ATOM     14  C   UNL d   1     -24.116  24.253  23.285  0.00  0.00     0.163 A 
ENDBRANCH   8   9
BRANCH   8  15
ATOM     15  S   UNL d   1     -26.937  23.861  24.933  0.00  0.00    -0.122 SA
ATOM     16  H   UNL d   1     -28.324  23.612  24.884  0.00  0.00     0.108 HD
ENDBRANCH   8  15
ENDBRANCH   1   7
BRANCH   4  17
ATOM     17  O   UNL d   1     -32.406  21.622  24.658  0.00  0.00    -0.255 OA
BRANCH  17  18
ATOM     18  C   UNL d   1     -33.045  20.378  24.361  0.00  0.00     0.530 C 
ATOM     19  F   UNL d   1     -33.028  20.163  22.980  0.00  0.00    -0.144 F 
ATOM     20  F   UNL d   1     -32.364  19.339  25.005  0.00  0.00    -0.144 F 
ATOM     21  F   UNL d   1     -34.369  20.416  24.812  0.00  0.00    -0.144 F 
ENDBRANCH  17  18
ENDBRANCH   4  17
TORSDOF 5
ENDMDL
