MODEL 1
REMARK VINA RESULT:     -10.7      0.000      0.000
REMARK  7 active torsions:
REMARK  status: ('A' for Active; 'I' for Inactive)
REMARK    1  A    between atoms: C_2  and  O_3 
REMARK    2  A    between atoms: O_3  and  C_4 
REMARK    3  A    between atoms: C_4  and  C_6 
REMARK    4  A    between atoms: C_11  and  C_12 
REMARK    5  A    between atoms: N_13  and  N_14 
REMARK    6  A    between atoms: N_14  and  C_16 
REMARK    7  A    between atoms: C_18  and  C_19 
ROOT
ATOM      1  N   UNL d   1     -27.362  22.905  23.856  0.00  0.00    -0.251 N 
ATOM      2  C   UNL d   1     -27.267  23.270  25.273  0.00  0.00     0.182 C 
ENDROOT
BRANCH   1   3
ATOM      3  N   UNL d   1     -28.618  22.739  23.258  0.00  0.00    -0.182 NA
ATOM      4  C   UNL d   1     -29.540  22.052  23.865  0.00  0.00     0.151 C 
BRANCH   4   5
ATOM      5  C   UNL d   1     -30.892  21.968  23.289  0.00  0.00    -0.001 A 
ATOM      6  C   UNL d   1     -31.999  21.680  24.116  0.00  0.00     0.051 A 
ATOM      7  C   UNL d   1     -33.275  21.610  23.554  0.00  0.00     0.018 A 
ATOM      8  C   UNL d   1     -33.445  21.810  22.201  0.00  0.00     0.001 A 
ATOM      9  C   UNL d   1     -32.356  22.087  21.388  0.00  0.00     0.001 A 
ATOM     10  C   UNL d   1     -31.087  22.167  21.920  0.00  0.00     0.014 A 
BRANCH   6  11
ATOM     11  C   UNL d   1     -31.810  21.461  25.560  0.00  0.00     0.294 C 
ATOM     12  O   UNL d   1     -31.366  22.352  26.257  0.00  0.00    -0.259 OA
BRANCH  11  13
ATOM     13  O   UNL d   1     -32.130  20.272  26.108  0.00  0.00    -0.318 OA
BRANCH  13  14
ATOM     14  C   UNL d   1     -31.030  19.393  26.465  0.00  0.00     0.174 C 
ATOM     15  C   UNL d   1     -31.524  17.945  26.498  0.00  0.00     0.034 C 
ENDBRANCH  13  14
ENDBRANCH  11  13
ENDBRANCH   6  11
ENDBRANCH   4   5
ENDBRANCH   1   3
BRANCH   1  16
ATOM     16  C   UNL d   1     -26.209  22.723  23.109  0.00  0.00     0.189 A 
ATOM     17  S   UNL d   1     -26.048  21.632  21.737  0.00  0.00    -0.060 SA
ATOM     18  C   UNL d   1     -24.367  22.125  21.543  0.00  0.00     0.086 A 
ATOM     19  C   UNL d   1     -24.081  23.029  22.497  0.00  0.00     0.078 A 
ATOM     20  N   UNL d   1     -25.080  23.329  23.313  0.00  0.00    -0.222 NA
BRANCH  19  21
ATOM     21  C   UNL d   1     -22.741  23.653  22.622  0.00  0.00     0.015 A 
ATOM     22  C   UNL d   1     -22.211  24.393  21.565  0.00  0.00     0.046 A 
ATOM     23  C   UNL d   1     -20.963  24.971  21.687  0.00  0.00     0.025 A 
ATOM     24 CL   UNL d   1     -23.120  24.589  20.099  0.00  0.00    -0.083 Cl
ATOM     25  C   UNL d   1     -20.238  24.816  22.856  0.00  0.00     0.002 A 
ATOM     26  C   UNL d   1     -20.759  24.082  23.907  0.00  0.00     0.001 A 
ATOM     27  C   UNL d   1     -22.005  23.500  23.796  0.00  0.00     0.015 A 
ENDBRANCH  19  21
ENDBRANCH   1  16
TORSDOF 7
ENDMDL
