MODEL 1
REMARK VINA RESULT:     -11.0      0.000      0.000
REMARK  7 active torsions:
REMARK  status: ('A' for Active; 'I' for Inactive)
REMARK    1  A    between atoms: C_2  and  C_3 
REMARK    2  A    between atoms: C_6  and  N_7 
REMARK    3  A    between atoms: N_7  and  C_8 
REMARK    4  A    between atoms: C_12  and  C_13 
REMARK    5  A    between atoms: C_17  and  O_18 
REMARK    6  A    between atoms: C_24  and  C_25 
REMARK    7  A    between atoms: C_25  and  O_27 
ROOT
ATOM      1  C   UNL d   1     -26.943  22.852  23.723  0.00  0.00     0.112 A 
ATOM      2  C   UNL d   1     -26.284  24.016  24.107  0.00  0.00     0.146 A 
ATOM      3  F   UNL d   1     -26.826  24.819  25.048  0.00  0.00    -0.204 F 
ATOM      4  C   UNL d   1     -25.080  24.352  23.522  0.00  0.00     0.057 A 
ATOM      5  C   UNL d   1     -24.518  23.520  22.555  0.00  0.00    -0.020 A 
ATOM      6  C   UNL d   1     -25.177  22.352  22.177  0.00  0.00     0.057 A 
ATOM      7  C   UNL d   1     -26.384  22.020  22.758  0.00  0.00     0.146 A 
ATOM      8  F   UNL d   1     -27.023  20.888  22.391  0.00  0.00    -0.204 F 
ENDROOT
BRANCH   1   9
ATOM      9  N   UNL d   1     -28.167  22.515  24.313  0.00  0.00    -0.335 N 
ATOM     10  H   UNL d   1     -28.222  22.381  25.273  0.00  0.00     0.168 HD
BRANCH   9  11
ATOM     11  C   UNL d   1     -29.297  22.372  23.529  0.00  0.00     0.144 A 
ATOM     12  N   UNL d   1     -29.257  22.709  22.248  0.00  0.00    -0.242 NA
ATOM     13  C   UNL d   1     -30.310  22.588  21.465  0.00  0.00     0.126 A 
ATOM     14  C   UNL d   1     -31.512  22.100  21.949  0.00  0.00    -0.040 A 
ATOM     15  C   UNL d   1     -31.612  21.732  23.278  0.00  0.00     0.030 A 
ATOM     16  C   UNL d   1     -30.480  21.863  24.092  0.00  0.00     0.084 A 
BRANCH  14  17
ATOM     17  C   UNL d   1     -32.703  21.971  21.034  0.00  0.00     0.035 C 
ATOM     18  C   UNL d   1     -33.726  21.021  21.660  0.00  0.00     0.010 C 
ENDBRANCH  14  17
BRANCH  16  19
ATOM     19  C   UNL d   1     -30.530  21.480  25.514  0.00  0.00     0.180 C 
ATOM     20  O   UNL d   1     -31.384  21.952  26.240  0.00  0.00    -0.646 OA
BRANCH  19  21
ATOM     21  O   UNL d   1     -29.630  20.608  26.009  0.00  0.00    -0.773 OA
ATOM     22  H   UNL d   1     -29.626  19.719  25.629  0.00  0.00     0.167 HD
ENDBRANCH  19  21
ENDBRANCH  16  19
ENDBRANCH   9  11
ENDBRANCH   1   9
BRANCH   5  23
ATOM     23  C   UNL d   1     -23.221  23.877  21.932  0.00  0.00    -0.023 A 
ATOM     24  C   UNL d   1     -22.055  23.867  22.693  0.00  0.00     0.049 A 
ATOM     25  C   UNL d   1     -20.844  24.198  22.103  0.00  0.00     0.069 A 
ATOM     26  C   UNL d   1     -20.799  24.547  20.761  0.00  0.00     0.037 A 
ATOM     27  C   UNL d   1     -21.957  24.562  20.007  0.00  0.00     0.004 A 
ATOM     28  C   UNL d   1     -23.166  24.230  20.584  0.00  0.00     0.012 A 
BRANCH  25  29
ATOM     29  O   UNL d   1     -19.703  24.185  22.842  0.00  0.00    -0.356 OA
ATOM     30  C   UNL d   1     -19.796  24.659  24.187  0.00  0.00     0.210 C 
ENDBRANCH  25  29
ENDBRANCH   5  23
TORSDOF 7
ENDMDL
