MODEL 1
REMARK VINA RESULT:     -10.9      0.000      0.000
REMARK  7 active torsions:
REMARK  status: ('A' for Active; 'I' for Inactive)
REMARK    1  A    between atoms: C_2  and  C_3 
REMARK    2  A    between atoms: C_3  and  O_4 
REMARK    3  A    between atoms: C_5  and  C_8 
REMARK       I    between atoms: C_8  and  N_10 
REMARK    4  A    between atoms: N_10  and  C_11 
REMARK    5  A    between atoms: C_14  and  C_15 
REMARK    6  A    between atoms: C_24  and  C_25 
REMARK    7  A    between atoms: C_25  and  O_27 
ROOT
ATOM      1  C   UNL d   1     -32.288  21.742  22.706  0.00  0.00     0.069 C 
ATOM      2  C   UNL d   1     -31.366  21.905  23.697  0.00  0.00     0.141 C 
ATOM      3  C   UNL d   1     -31.704  21.578  25.050  0.00  0.00     0.107 C 
ATOM      4  N   UNL d   1     -31.973  21.319  26.123  0.00  0.00    -0.191 NA
ENDROOT
BRANCH   2   5
ATOM      5  C   UNL d   1     -30.025  22.416  23.378  0.00  0.00     0.269 C 
ATOM      6  O   UNL d   1     -29.872  23.174  22.439  0.00  0.00    -0.266 OA
ATOM      7  N   UNL d   1     -28.968  22.045  24.125  0.00  0.00    -0.322 N 
ATOM      8  H   UNL d   1     -29.099  21.495  24.914  0.00  0.00     0.169 HD
BRANCH   7   9
ATOM      9  C   UNL d   1     -27.679  22.451  23.763  0.00  0.00     0.036 A 
ATOM     10  C   UNL d   1     -27.054  21.871  22.671  0.00  0.00     0.048 A 
ATOM     11  C   UNL d   1     -25.770  22.275  22.308  0.00  0.00     0.052 A 
ATOM     12  C   UNL d   1     -25.118  23.274  23.057  0.00  0.00    -0.009 A 
ATOM     13  C   UNL d   1     -25.761  23.848  24.151  0.00  0.00     0.015 A 
ATOM     14  C   UNL d   1     -27.031  23.438  24.499  0.00  0.00     0.030 A 
BRANCH  11  15
ATOM     15  C   UNL d   1     -25.098  21.661  21.148  0.00  0.00     0.293 C 
ATOM     16  O   UNL d   1     -24.253  20.804  21.319  0.00  0.00    -0.259 OA
BRANCH  15  17
ATOM     17  O   UNL d   1     -25.420  22.051  19.899  0.00  0.00    -0.322 OA
ATOM     18  C   UNL d   1     -24.321  22.349  18.997  0.00  0.00     0.213 C 
ENDBRANCH  15  17
ENDBRANCH  11  15
BRANCH  12  19
ATOM     19  C   UNL d   1     -23.755  23.713  22.681  0.00  0.00    -0.019 A 
ATOM     20  C   UNL d   1     -23.536  24.353  21.462  0.00  0.00     0.058 A 
ATOM     21  C   UNL d   1     -22.263  24.761  21.116  0.00  0.00     0.158 A 
ATOM     22  C   UNL d   1     -21.201  24.534  21.981  0.00  0.00     0.193 A 
ATOM     23  F   UNL d   1     -22.050  25.381  19.935  0.00  0.00    -0.203 F 
ATOM     24  C   UNL d   1     -21.414  23.897  23.194  0.00  0.00     0.158 A 
ATOM     25  F   UNL d   1     -19.956  24.935  21.639  0.00  0.00    -0.200 F 
ATOM     26  C   UNL d   1     -22.686  23.491  23.550  0.00  0.00     0.058 A 
ATOM     27  F   UNL d   1     -20.376  23.678  24.032  0.00  0.00    -0.203 F 
ENDBRANCH  12  19
ENDBRANCH   7   9
ENDBRANCH   2   5
BRANCH   1  28
ATOM     28  C   UNL d   1     -33.662  21.218  23.034  0.00  0.00     0.061 C 
ATOM     29  C   UNL d   1     -34.113  20.247  21.941  0.00  0.00     0.012 C 
ENDBRANCH   1  28
BRANCH   1  30
ATOM     30  O   UNL d   1     -31.970  22.049  21.437  0.00  0.00    -0.363 OA
ATOM     31  H   UNL d   1     -31.084  22.402  21.279  0.00  0.00     0.217 HD
ENDBRANCH   1  30
TORSDOF 7
ENDMDL
