MODEL 1
REMARK VINA RESULT:     -11.7      0.000      0.000
REMARK  2 active torsions:
REMARK  status: ('A' for Active; 'I' for Inactive)
REMARK    1  A    between atoms: C_2  and  C_4 
REMARK    2  A    between atoms: C_7  and  N_8 
ROOT
ATOM      1  N   UNL d   1     -27.949  22.104  24.369  0.00  0.00    -0.209 N 
ATOM      2  N   UNL d   1     -27.937  21.878  25.637  0.00  0.00    -0.059 NA
ATOM      3  N   UNL d   1     -29.122  21.648  26.080  0.00  0.00    -0.125 NA
ATOM      4  C   UNL d   1     -29.992  21.715  25.064  0.00  0.00     0.164 A 
ATOM      5  C   UNL d   1     -29.237  22.010  23.935  0.00  0.00     0.146 A 
ATOM      6  C   UNL d   1     -29.885  22.157  22.624  0.00  0.00     0.214 A 
ATOM      7  O   UNL d   1     -29.218  22.415  21.641  0.00  0.00    -0.285 OA
ATOM      8  C   UNL d   1     -31.350  21.990  22.504  0.00  0.00     0.031 A 
ATOM      9  C   UNL d   1     -31.976  22.126  21.270  0.00  0.00     0.016 A 
ATOM     10  C   UNL d   1     -33.348  21.968  21.171  0.00  0.00     0.001 A 
ATOM     11  C   UNL d   1     -34.101  21.674  22.293  0.00  0.00     0.001 A 
ATOM     12  C   UNL d   1     -33.493  21.535  23.529  0.00  0.00     0.016 A 
ATOM     13  C   UNL d   1     -32.116  21.691  23.645  0.00  0.00     0.031 A 
ATOM     14  C   UNL d   1     -31.453  21.545  24.960  0.00  0.00     0.216 A 
ATOM     15  O   UNL d   1     -32.110  21.287  25.948  0.00  0.00    -0.285 OA
ENDROOT
BRANCH   1  16
ATOM     16  C   UNL d   1     -26.834  22.395  23.575  0.00  0.00     0.060 A 
ATOM     17  C   UNL d   1     -26.033  23.490  23.874  0.00  0.00     0.032 A 
ATOM     18  C   UNL d   1     -24.933  23.774  23.089  0.00  0.00     0.010 A 
ATOM     19  C   UNL d   1     -24.628  22.968  22.006  0.00  0.00    -0.055 A 
ATOM     20  C   UNL d   1     -25.424  21.878  21.706  0.00  0.00     0.010 A 
ATOM     21  C   UNL d   1     -26.522  21.586  22.490  0.00  0.00     0.032 A 
BRANCH  19  22
ATOM     22  C   UNL d   1     -23.427  23.281  21.153  0.00  0.00     0.010 C 
ATOM     23  C   UNL d   1     -23.778  23.067  19.679  0.00  0.00     0.015 C 
ATOM     24  C   UNL d   1     -23.010  24.737  21.372  0.00  0.00     0.015 C 
ENDBRANCH  19  22
ENDBRANCH   1  16
TORSDOF 2
ENDMDL
