MODEL 1
REMARK VINA RESULT:     -11.0      0.000      0.000
REMARK  6 active torsions:
REMARK  status: ('A' for Active; 'I' for Inactive)
REMARK    1  A    between atoms: C_2  and  O_3 
REMARK    2  A    between atoms: C_2  and  C_33 
REMARK    3  A    between atoms: O_3  and  C_4 
REMARK    4  A    between atoms: C_6  and  N_7 
REMARK    5  A    between atoms: C_20  and  C_21 
REMARK       I    between atoms: C_21  and  N_23 
REMARK    6  A    between atoms: N_23  and  C_24 
ROOT
ATOM      1  C   UNL d   1     -20.557  24.875  23.497  0.00  0.00     0.059 A 
ATOM      2  C   UNL d   1     -19.864  24.473  22.364  0.00  0.00     0.031 A 
ATOM      3  C   UNL d   1     -18.599  24.969  22.111  0.00  0.00     0.005 A 
ATOM      4  C   UNL d   1     -18.007  25.859  22.990  0.00  0.00     0.044 A 
ATOM      5  C   UNL d   1     -18.678  26.268  24.127  0.00  0.00     0.139 A 
ATOM      6  F   UNL d   1     -18.096  27.137  24.981  0.00  0.00    -0.204 F 
ATOM      7  C   UNL d   1     -19.962  25.778  24.392  0.00  0.00     0.109 A 
ATOM      8  C   UNL d   1     -20.665  26.197  25.567  0.00  0.00     0.105 C 
ATOM      9  N   UNL d   1     -21.222  26.528  26.499  0.00  0.00    -0.191 NA
ENDROOT
BRANCH   1  10
ATOM     10  N   UNL d   1     -21.834  24.380  23.748  0.00  0.00    -0.321 N 
ATOM     11  C   UNL d   1     -22.912  24.997  23.225  0.00  0.00     0.259 C 
ATOM     12  O   UNL d   1     -22.776  26.028  22.595  0.00  0.00    -0.267 OA
ATOM     13  H   UNL d   1     -21.948  23.590  24.301  0.00  0.00     0.169 HD
BRANCH  11  14
ATOM     14  C   UNL d   1     -24.254  24.422  23.416  0.00  0.00     0.068 A 
ATOM     15  C   UNL d   1     -24.677  23.342  22.625  0.00  0.00     0.087 A 
ATOM     16  C   UNL d   1     -25.937  22.804  22.814  0.00  0.00     0.073 A 
ATOM     17  C   UNL d   1     -26.786  23.338  23.774  0.00  0.00     0.104 A 
ATOM     18  C   UNL d   1     -26.368  24.412  24.560  0.00  0.00     0.146 A 
ATOM     19  F   UNL d   1     -27.197  24.923  25.497  0.00  0.00    -0.204 F 
ATOM     20  C   UNL d   1     -25.114  24.952  24.385  0.00  0.00     0.064 A 
BRANCH  15  21
ATOM     21  O   UNL d   1     -23.849  22.823  21.684  0.00  0.00    -0.336 OA
BRANCH  21  22
ATOM     22  C   UNL d   1     -23.938  23.375  20.369  0.00  0.00     0.232 C 
ATOM     23  C   UNL d   1     -22.543  23.786  19.893  0.00  0.00     0.049 C 
BRANCH  22  24
ATOM     24  C   UNL d   1     -24.514  22.326  19.415  0.00  0.00     0.413 C 
ATOM     25  F   UNL d   1     -23.666  21.213  19.379  0.00  0.00    -0.168 F 
ATOM     26  F   UNL d   1     -25.780  21.933  19.862  0.00  0.00    -0.168 F 
ATOM     27  F   UNL d   1     -24.621  22.872  18.131  0.00  0.00    -0.168 F 
ENDBRANCH  22  24
ENDBRANCH  21  22
ENDBRANCH  15  21
BRANCH  17  28
ATOM     28  N   UNL d   1     -28.059  22.795  23.957  0.00  0.00    -0.178 N 
ATOM     29  C   UNL d   1     -28.464  22.038  25.000  0.00  0.00     0.351 A 
ATOM     30  N   UNL d   1     -29.761  21.749  24.805  0.00  0.00    -0.284 N 
ATOM     31  O   UNL d   1     -27.780  21.684  25.943  0.00  0.00    -0.244 OA
ATOM     32  C   UNL d   1     -30.154  22.301  23.603  0.00  0.00     0.131 A 
ATOM     33  C   UNL d   1     -30.652  20.998  25.697  0.00  0.00     0.135 C 
ATOM     34  N   UNL d   1     -29.154  22.932  23.090  0.00  0.00    -0.149 NA
ATOM     35  C   UNL d   1     -31.541  22.152  23.024  0.00  0.00     0.081 C 
ATOM     36  C   UNL d   1     -32.484  21.723  24.156  0.00  0.00     0.009 C 
ATOM     37  C   UNL d   1     -31.869  20.527  24.892  0.00  0.00     0.021 C 
ENDBRANCH  17  28
ENDBRANCH  11  14
ENDBRANCH   1  10
TORSDOF 6
ENDMDL
