MODEL 1
REMARK VINA RESULT:     -10.4      0.000      0.000
REMARK  4 active torsions:
REMARK  status: ('A' for Active; 'I' for Inactive)
REMARK    1  A    between atoms: C_2  and  O_3 
REMARK    2  A    between atoms: C_2  and  C_4 
REMARK    3  A    between atoms: C_5  and  O_6 
REMARK    4  A    between atoms: C_7  and  C_8 
ROOT
ATOM      1  C   UNL d   1     -30.238  21.527  24.484  0.00  0.00     0.085 A 
ATOM      2  C   UNL d   1     -28.877  21.789  24.321  0.00  0.00     0.113 A 
ATOM      3  C   UNL d   1     -28.401  22.192  23.056  0.00  0.00     0.102 A 
ATOM      4  N   UNL d   1     -29.195  22.322  22.017  0.00  0.00    -0.245 NA
ATOM      5  C   UNL d   1     -30.508  22.087  22.083  0.00  0.00     0.069 A 
ATOM      6  C   UNL d   1     -31.327  22.237  20.949  0.00  0.00     0.035 A 
ATOM      7  C   UNL d   1     -32.662  21.991  21.044  0.00  0.00     0.044 A 
ATOM      8  C   UNL d   1     -33.237  21.593  22.251  0.00  0.00     0.117 A 
ATOM      9  F   UNL d   1     -34.566  21.357  22.311  0.00  0.00    -0.206 F 
ATOM     10  C   UNL d   1     -32.471  21.437  23.371  0.00  0.00     0.057 A 
ATOM     11  C   UNL d   1     -31.096  21.681  23.307  0.00  0.00     0.015 A 
ENDROOT
BRANCH   3  12
ATOM     12  C   UNL d   1     -26.956  22.474  22.892  0.00  0.00    -0.004 A 
ATOM     13  C   UNL d   1     -26.342  23.462  23.662  0.00  0.00     0.015 A 
ATOM     14  C   UNL d   1     -24.997  23.720  23.505  0.00  0.00     0.024 A 
ATOM     15  C   UNL d   1     -24.254  23.002  22.583  0.00  0.00     0.034 A 
ATOM     16  C   UNL d   1     -24.858  22.020  21.815  0.00  0.00     0.024 A 
ATOM     17 CL   UNL d   1     -22.561  23.333  22.389  0.00  0.00    -0.084 Cl
ATOM     18  C   UNL d   1     -26.204  21.757  21.961  0.00  0.00     0.015 A 
ENDBRANCH   3  12
BRANCH   2  19
ATOM     19  O   UNL d   1     -28.024  21.662  25.366  0.00  0.00    -0.357 OA
ATOM     20  H   UNL d   1     -27.529  22.467  25.569  0.00  0.00     0.217 HD
ENDBRANCH   2  19
BRANCH   1  21
ATOM     21  C   UNL d   1     -30.788  21.109  25.784  0.00  0.00     0.180 C 
ATOM     22  O   UNL d   1     -31.529  21.851  26.398  0.00  0.00    -0.646 OA
BRANCH  21  23
ATOM     23  O   UNL d   1     -30.471  19.901  26.294  0.00  0.00    -0.773 OA
ATOM     24  H   UNL d   1     -30.802  19.125  25.821  0.00  0.00     0.167 HD
ENDBRANCH  21  23
ENDBRANCH   1  21
TORSDOF 4
ENDMDL
