MODEL 1
REMARK VINA RESULT:      -9.2      0.000      0.000
REMARK  4 active torsions:
REMARK  status: ('A' for Active; 'I' for Inactive)
REMARK    1  A    between atoms: C_5  and  C_6 
REMARK    2  A    between atoms: C_9  and  C_10 
REMARK    3  A    between atoms: N_14  and  C_15 
REMARK    4  A    between atoms: C_29  and  N_30 
ROOT
ATOM      1  C   UNL d   1     -20.980  24.446  22.448  0.00  0.00     0.032 A 
ATOM      2  C   UNL d   1     -20.995  25.160  23.638  0.00  0.00     0.030 A 
ATOM      3  C   UNL d   1     -19.837  25.804  24.066  0.00  0.00    -0.011 A 
ATOM      4  C   UNL d   1     -19.795  26.567  25.316  0.00  0.00    -0.027 A 
ATOM      5  C   UNL d   1     -18.655  27.175  25.681  0.00  0.00     0.109 A 
ATOM      6  N   UNL d   1     -17.516  27.110  24.925  0.00  0.00    -0.288 N 
ATOM      7  C   UNL d   1     -17.463  26.433  23.761  0.00  0.00     0.263 A 
ATOM      8  O   UNL d   1     -16.431  26.399  23.116  0.00  0.00    -0.267 OA
ATOM      9  C   UNL d   1     -18.661  25.737  23.281  0.00  0.00     0.046 A 
ATOM     10  C   UNL d   1     -18.664  25.020  22.084  0.00  0.00     0.061 A 
ATOM     11  C   UNL d   1     -19.813  24.382  21.673  0.00  0.00     0.130 A 
ATOM     12  F   UNL d   1     -19.816  23.688  20.514  0.00  0.00    -0.205 F 
ENDROOT
BRANCH   1  13
ATOM     13  C   UNL d   1     -22.207  23.752  21.989  0.00  0.00     0.071 A 
ATOM     14  N   UNL d   1     -22.887  22.986  22.836  0.00  0.00    -0.260 NA
ATOM     15  C   UNL d   1     -23.983  22.350  22.472  0.00  0.00     0.126 A 
ATOM     16  C   UNL d   1     -24.470  22.454  21.185  0.00  0.00    -0.018 A 
ATOM     17  C   UNL d   1     -25.724  21.721  20.785  0.00  0.00     0.052 C 
ATOM     18  C   UNL d   1     -23.790  23.247  20.260  0.00  0.00     0.035 A 
ATOM     19  C   UNL d   1     -22.639  23.910  20.677  0.00  0.00     0.062 A 
BRANCH  18  20
ATOM     20  N   UNL d   1     -24.254  23.375  18.954  0.00  0.00    -0.399 N 
ATOM     21  H   UNL d   1     -25.186  23.201  18.750  0.00  0.00     0.156 HD
ATOM     22  H   UNL d   1     -23.645  23.638  18.247  0.00  0.00     0.156 HD
ENDBRANCH  18  20
ENDBRANCH   1  13
BRANCH   4  23
ATOM     23  C   UNL d   1     -21.021  26.668  26.186  0.00  0.00     0.013 C 
ATOM     24  C   UNL d   1     -20.620  26.513  27.654  0.00  0.00     0.015 C 
ATOM     25  C   UNL d   1     -21.682  28.032  25.980  0.00  0.00     0.015 C 
ENDBRANCH   4  23
BRANCH   6  26
ATOM     26  C   UNL d   1     -16.367  27.772  25.375  0.00  0.00     0.048 A 
ATOM     27  C   UNL d   1     -15.459  27.111  26.191  0.00  0.00    -0.035 A 
ATOM     28  C   UNL d   1     -14.326  27.767  26.633  0.00  0.00     0.009 A 
ATOM     29  C   UNL d   1     -15.707  25.680  26.593  0.00  0.00     0.050 C 
ATOM     30  C   UNL d   1     -14.097  29.079  26.264  0.00  0.00     0.001 A 
ATOM     31  C   UNL d   1     -15.000  29.740  25.451  0.00  0.00     0.002 A 
ATOM     32  C   UNL d   1     -16.132  29.088  25.001  0.00  0.00     0.030 A 
ENDBRANCH   6  26
TORSDOF 4
ENDMDL
