MODEL 1
REMARK VINA RESULT:     -10.8      0.000      0.000
REMARK  6 active torsions:
REMARK  status: ('A' for Active; 'I' for Inactive)
REMARK    1  A    between atoms: C_4  and  N_5 
REMARK    2  A    between atoms: N_5  and  N_7 
REMARK    3  A    between atoms: C_8  and  C_9 
REMARK    4  A    between atoms: C_14  and  C_15 
REMARK    5  A    between atoms: C_15  and  O_17 
REMARK    6  A    between atoms: C_19  and  C_20 
ROOT
ATOM      1  N   UNL d   1     -27.848  22.115  24.420  0.00  0.00    -0.251 N 
ATOM      2  C   UNL d   1     -27.767  22.200  25.881  0.00  0.00     0.182 C 
ENDROOT
BRANCH   1   3
ATOM      3  C   UNL d   1     -26.764  22.487  23.644  0.00  0.00     0.190 A 
ATOM      4  S   UNL d   1     -26.377  21.834  22.055  0.00  0.00    -0.053 SA
ATOM      5  C   UNL d   1     -24.961  22.879  21.969  0.00  0.00     0.012 A 
ATOM      6  C   UNL d   1     -23.984  22.950  20.824  0.00  0.00     0.059 C 
ATOM      7  C   UNL d   1     -24.903  23.604  23.101  0.00  0.00     0.084 A 
ATOM      8  N   UNL d   1     -25.877  23.378  23.970  0.00  0.00    -0.221 NA
BRANCH   7   9
ATOM      9  C   UNL d   1     -23.825  24.591  23.356  0.00  0.00     0.015 A 
ATOM     10  C   UNL d   1     -22.528  24.155  23.625  0.00  0.00     0.046 A 
ATOM     11  C   UNL d   1     -21.529  25.080  23.862  0.00  0.00     0.025 A 
ATOM     12 CL   UNL d   1     -22.169  22.457  23.662  0.00  0.00    -0.083 Cl
ATOM     13  C   UNL d   1     -21.814  26.433  23.833  0.00  0.00     0.002 A 
ATOM     14  C   UNL d   1     -23.100  26.869  23.567  0.00  0.00     0.001 A 
ATOM     15  C   UNL d   1     -24.105  25.955  23.323  0.00  0.00     0.015 A 
ENDBRANCH   7   9
ENDBRANCH   1   3
BRANCH   1  16
ATOM     16  N   UNL d   1     -29.023  21.656  23.810  0.00  0.00    -0.182 NA
ATOM     17  C   UNL d   1     -30.082  22.411  23.790  0.00  0.00     0.151 C 
BRANCH  17  18
ATOM     18  C   UNL d   1     -31.347  21.889  23.252  0.00  0.00    -0.000 A 
ATOM     19  C   UNL d   1     -32.152  21.031  24.031  0.00  0.00     0.049 A 
ATOM     20  C   UNL d   1     -33.352  20.550  23.506  0.00  0.00     0.019 A 
ATOM     21  C   UNL d   1     -33.738  20.903  22.230  0.00  0.00     0.001 A 
ATOM     22  C   UNL d   1     -32.945  21.742  21.462  0.00  0.00     0.001 A 
ATOM     23  C   UNL d   1     -31.757  22.234  21.962  0.00  0.00     0.014 A 
BRANCH  19  24
ATOM     24  C   UNL d   1     -31.731  20.652  25.390  0.00  0.00     0.177 C 
ATOM     25  O   UNL d   1     -32.106  21.300  26.347  0.00  0.00    -0.646 OA
BRANCH  24  26
ATOM     26  O   UNL d   1     -30.928  19.584  25.574  0.00  0.00    -0.773 OA
ATOM     27  H   UNL d   1     -30.039  19.632  25.195  0.00  0.00     0.167 HD
ENDBRANCH  24  26
ENDBRANCH  19  24
ENDBRANCH  17  18
ENDBRANCH   1  16
TORSDOF 6
ENDMDL
