MODEL 1
REMARK VINA RESULT:     -10.5      0.000      0.000
REMARK  3 active torsions:
REMARK  status: ('A' for Active; 'I' for Inactive)
REMARK       I    between atoms: C_2  and  N_3 
REMARK    1  A    between atoms: C_2  and  C_20 
REMARK    2  A    between atoms: N_3  and  C_4 
REMARK    3  A    between atoms: N_12  and  C_13 
ROOT
ATOM      1  C   UNL d   1     -26.074  22.218  22.636  0.00  0.00     0.121 C 
ATOM      2  C   UNL d   1     -26.414  22.306  21.144  0.00  0.00     0.030 C 
ATOM      3  C   UNL d   1     -27.442  21.229  20.788  0.00  0.00     0.008 C 
ATOM      4  C   UNL d   1     -28.796  21.584  21.415  0.00  0.00     0.060 C 
ATOM      5  C   UNL d   1     -28.575  21.897  22.874  0.00  0.00     0.046 A 
ATOM      6  C   UNL d   1     -27.363  22.183  23.417  0.00  0.00     0.008 A 
ATOM      7  C   UNL d   1     -27.547  22.420  24.778  0.00  0.00     0.150 A 
ATOM      8  N   UNL d   1     -28.824  22.289  25.045  0.00  0.00    -0.179 NA
ATOM      9  N   UNL d   1     -29.493  21.964  23.855  0.00  0.00    -0.235 N 
ENDROOT
BRANCH   1  10
ATOM     10  N   UNL d   1     -25.287  23.388  23.034  0.00  0.00    -0.347 N 
ATOM     11  C   UNL d   1     -23.941  23.336  23.005  0.00  0.00     0.270 C 
ATOM     12  O   UNL d   1     -23.379  22.320  22.649  0.00  0.00    -0.266 OA
ATOM     13  H   UNL d   1     -25.736  24.200  23.319  0.00  0.00     0.163 HD
BRANCH  11  14
ATOM     14  C   UNL d   1     -23.146  24.520  23.408  0.00  0.00     0.125 A 
ATOM     15  N   UNL d   1     -23.710  25.722  23.413  0.00  0.00    -0.255 NA
ATOM     16  C   UNL d   1     -23.042  26.797  23.770  0.00  0.00     0.119 A 
ATOM     17  C   UNL d   1     -21.711  26.716  24.145  0.00  0.00     0.038 A 
ATOM     18  C   UNL d   1     -21.079  25.480  24.149  0.00  0.00     0.014 A 
ATOM     19  C   UNL d   1     -21.812  24.363  23.773  0.00  0.00     0.056 A 
ATOM     20 BR   UNL d   1     -19.264  25.323  24.654  0.00  0.00    -0.051 Br
ENDBRANCH  11  14
ENDBRANCH   1  10
BRANCH   9  21
ATOM     21  C   UNL d   1     -30.870  21.741  23.716  0.00  0.00     0.097 A 
ATOM     22  C   UNL d   1     -31.520  20.843  24.556  0.00  0.00     0.145 A 
ATOM     23  C   UNL d   1     -32.879  20.628  24.415  0.00  0.00     0.045 A 
ATOM     24  F   UNL d   1     -30.825  20.184  25.508  0.00  0.00    -0.204 F 
ATOM     25  C   UNL d   1     -33.591  21.307  23.444  0.00  0.00     0.003 A 
ATOM     26  C   UNL d   1     -32.945  22.196  22.604  0.00  0.00     0.002 A 
ATOM     27  C   UNL d   1     -31.589  22.416  22.739  0.00  0.00     0.035 A 
ENDBRANCH   9  21
TORSDOF 3
ENDMDL
