MODEL 1
REMARK VINA RESULT:     -11.1      0.000      0.000
REMARK  6 active torsions:
REMARK  status: ('A' for Active; 'I' for Inactive)
REMARK    1  A    between atoms: C_8  and  N_9 
REMARK       I    between atoms: N_9  and  C_10 
REMARK    2  A    between atoms: C_10  and  C_12 
REMARK    3  A    between atoms: C_16  and  N_17 
REMARK    4  A    between atoms: C_28  and  O_29 
REMARK    5  A    between atoms: O_29  and  C_30 
REMARK    6  A    between atoms: C_30  and  C_32 
ROOT
ATOM      1  C   UNL d   1     -24.188  24.575  23.615  0.00  0.00     0.068 A 
ATOM      2  C   UNL d   1     -25.085  25.098  24.552  0.00  0.00     0.064 A 
ATOM      3  C   UNL d   1     -26.335  24.538  24.696  0.00  0.00     0.146 A 
ATOM      4  F   UNL d   1     -27.202  25.048  25.597  0.00  0.00    -0.204 F 
ATOM      5  C   UNL d   1     -26.704  23.442  23.918  0.00  0.00     0.104 A 
ATOM      6  C   UNL d   1     -25.820  22.916  22.985  0.00  0.00     0.073 A 
ATOM      7  C   UNL d   1     -24.564  23.476  22.829  0.00  0.00     0.087 A 
ENDROOT
BRANCH   1   8
ATOM      8  C   UNL d   1     -22.854  25.177  23.454  0.00  0.00     0.259 C 
ATOM      9  N   UNL d   1     -21.782  24.606  24.039  0.00  0.00    -0.321 N 
ATOM     10  H   UNL d   1     -21.874  23.755  24.495  0.00  0.00     0.169 HD
ATOM     11  O   UNL d   1     -22.719  26.189  22.794  0.00  0.00    -0.267 OA
BRANCH   9  12
ATOM     12  C   UNL d   1     -20.536  25.241  23.987  0.00  0.00     0.065 A 
ATOM     13  C   UNL d   1     -20.211  26.237  24.904  0.00  0.00    -0.032 A 
ATOM     14  C   UNL d   1     -21.190  26.651  25.973  0.00  0.00     0.050 C 
ATOM     15  C   UNL d   1     -18.964  26.832  24.816  0.00  0.00     0.028 A 
ATOM     16  C   UNL d   1     -18.094  26.431  23.818  0.00  0.00     0.117 A 
ATOM     17  N   UNL d   1     -18.434  25.490  22.960  0.00  0.00    -0.264 NA
ATOM     18  C   UNL d   1     -19.608  24.893  23.014  0.00  0.00     0.057 A 
ATOM     19  C   UNL d   1     -19.947  23.823  22.008  0.00  0.00     0.073 C 
ENDBRANCH   9  12
ENDBRANCH   1   8
BRANCH   7  20
ATOM     20  O   UNL d   1     -23.700  22.963  21.919  0.00  0.00    -0.336 OA
BRANCH  20  21
ATOM     21  C   UNL d   1     -23.969  23.235  20.542  0.00  0.00     0.232 C 
ATOM     22  C   UNL d   1     -22.678  23.666  19.844  0.00  0.00     0.049 C 
BRANCH  21  23
ATOM     23  C   UNL d   1     -24.516  21.973  19.870  0.00  0.00     0.413 C 
ATOM     24  F   UNL d   1     -23.931  21.825  18.609  0.00  0.00    -0.168 F 
ATOM     25  F   UNL d   1     -24.214  20.858  20.659  0.00  0.00    -0.168 F 
ATOM     26  F   UNL d   1     -25.904  22.084  19.732  0.00  0.00    -0.168 F 
ENDBRANCH  21  23
ENDBRANCH  20  21
ENDBRANCH   7  20
BRANCH   5  27
ATOM     27  N   UNL d   1     -27.971  22.873  24.073  0.00  0.00    -0.178 N 
ATOM     28  C   UNL d   1     -28.387  22.116  25.113  0.00  0.00     0.351 A 
ATOM     29  N   UNL d   1     -29.673  21.798  24.887  0.00  0.00    -0.284 N 
ATOM     30  O   UNL d   1     -27.720  21.784  26.076  0.00  0.00    -0.244 OA
ATOM     31  C   UNL d   1     -30.045  22.332  23.670  0.00  0.00     0.131 A 
ATOM     32  C   UNL d   1     -30.570  21.037  25.762  0.00  0.00     0.135 C 
ATOM     33  N   UNL d   1     -29.045  22.981  23.177  0.00  0.00    -0.149 NA
ATOM     34  C   UNL d   1     -31.414  22.149  23.057  0.00  0.00     0.081 C 
ATOM     35  C   UNL d   1     -32.376  21.710  24.170  0.00  0.00     0.009 C 
ATOM     36  C   UNL d   1     -31.756  20.534  24.931  0.00  0.00     0.021 C 
ENDBRANCH   5  27
TORSDOF 6
ENDMDL
