MODEL 1
REMARK VINA RESULT:     -10.4      0.000      0.000
REMARK  9 active torsions:
REMARK  status: ('A' for Active; 'I' for Inactive)
REMARK    1  A    between atoms: C_2  and  C_3 
REMARK    2  A    between atoms: C_3  and  O_4 
REMARK    3  A    between atoms: C_5  and  C_8 
REMARK       I    between atoms: C_8  and  N_10 
REMARK    4  A    between atoms: N_10  and  C_11 
REMARK    5  A    between atoms: C_14  and  C_15 
REMARK    6  A    between atoms: C_19  and  O_20 
REMARK    7  A    between atoms: O_20  and  C_21 
REMARK    8  A    between atoms: C_26  and  C_27 
REMARK    9  A    between atoms: C_27  and  O_29 
ROOT
ATOM      1  C   UNL d   1     -32.159  21.779  22.952  0.00  0.00     0.069 C 
ATOM      2  C   UNL d   1     -31.175  21.933  23.883  0.00  0.00     0.141 C 
ATOM      3  C   UNL d   1     -31.422  21.578  25.249  0.00  0.00     0.107 C 
ATOM      4  N   UNL d   1     -31.617  21.295  26.332  0.00  0.00    -0.191 NA
ENDROOT
BRANCH   2   5
ATOM      5  C   UNL d   1     -29.866  22.470  23.488  0.00  0.00     0.269 C 
ATOM      6  O   UNL d   1     -29.770  23.179  22.504  0.00  0.00    -0.266 OA
ATOM      7  N   UNL d   1     -28.770  22.178  24.217  0.00  0.00    -0.322 N 
ATOM      8  H   UNL d   1     -28.857  21.681  25.045  0.00  0.00     0.169 HD
BRANCH   7   9
ATOM      9  C   UNL d   1     -27.509  22.594  23.780  0.00  0.00     0.036 A 
ATOM     10  C   UNL d   1     -26.912  21.966  22.697  0.00  0.00     0.048 A 
ATOM     11  C   UNL d   1     -25.655  22.382  22.260  0.00  0.00     0.052 A 
ATOM     12  C   UNL d   1     -25.001  23.437  22.923  0.00  0.00    -0.009 A 
ATOM     13  C   UNL d   1     -25.616  24.056  24.008  0.00  0.00     0.015 A 
ATOM     14  C   UNL d   1     -26.862  23.641  24.427  0.00  0.00     0.030 A 
BRANCH  11  15
ATOM     15  C   UNL d   1     -25.013  21.719  21.109  0.00  0.00     0.293 C 
ATOM     16  O   UNL d   1     -24.170  20.865  21.292  0.00  0.00    -0.259 OA
BRANCH  15  17
ATOM     17  O   UNL d   1     -25.364  22.060  19.854  0.00  0.00    -0.322 OA
ATOM     18  C   UNL d   1     -24.288  22.314  18.913  0.00  0.00     0.213 C 
ENDBRANCH  15  17
ENDBRANCH  11  15
BRANCH  12  19
ATOM     19  C   UNL d   1     -23.666  23.888  22.467  0.00  0.00    -0.022 A 
ATOM     20  C   UNL d   1     -22.558  23.750  23.301  0.00  0.00     0.049 A 
ATOM     21  C   UNL d   1     -21.312  24.169  22.866  0.00  0.00     0.079 A 
ATOM     22  C   UNL d   1     -21.170  24.735  21.607  0.00  0.00     0.037 A 
ATOM     23  C   UNL d   1     -22.268  24.877  20.779  0.00  0.00     0.004 A 
ATOM     24  C   UNL d   1     -23.514  24.458  21.202  0.00  0.00     0.012 A 
BRANCH  21  25
ATOM     25  O   UNL d   1     -20.228  24.032  23.675  0.00  0.00    -0.255 OA
BRANCH  25  26
ATOM     26  C   UNL d   1     -19.849  25.171  24.449  0.00  0.00     0.530 C 
ATOM     27  F   UNL d   1     -19.721  26.284  23.609  0.00  0.00    -0.144 F 
ATOM     28  F   UNL d   1     -20.829  25.426  25.414  0.00  0.00    -0.144 F 
ATOM     29  F   UNL d   1     -18.626  24.920  25.080  0.00  0.00    -0.144 F 
ENDBRANCH  25  26
ENDBRANCH  21  25
ENDBRANCH  12  19
ENDBRANCH   7   9
ENDBRANCH   2   5
BRANCH   1  30
ATOM     30  C   UNL d   1     -33.501  21.228  23.356  0.00  0.00     0.061 C 
ATOM     31  C   UNL d   1     -34.122  20.479  22.173  0.00  0.00     0.012 C 
ENDBRANCH   1  30
BRANCH   1  32
ATOM     32  O   UNL d   1     -31.929  22.118  21.671  0.00  0.00    -0.363 OA
ATOM     33  H   UNL d   1     -32.507  21.724  21.003  0.00  0.00     0.217 HD
ENDBRANCH   1  32
TORSDOF 9
ENDMDL
