MODEL 1
REMARK VINA RESULT:      -9.2      0.000      0.000
REMARK  9 active torsions:
REMARK  status: ('A' for Active; 'I' for Inactive)
REMARK    1  A    between atoms: C_2  and  C_3 
REMARK    2  A    between atoms: C_3  and  C_4 
REMARK    3  A    between atoms: C_4  and  O_6 
REMARK    4  A    between atoms: O_6  and  C_7 
REMARK    5  A    between atoms: C_9  and  N_10 
REMARK    6  A    between atoms: C_12  and  C_13 
REMARK    7  A    between atoms: C_13  and  N_14 
REMARK    8  A    between atoms: C_22  and  C_23 
REMARK       I    between atoms: C_23  and  N_25 
REMARK    9  A    between atoms: N_25  and  C_26 
ROOT
ATOM      1  C   UNL d   1     -26.409  23.143  23.272  0.00  0.00     0.087 A 
ATOM      2  C   UNL d   1     -27.764  22.998  23.516  0.00  0.00     0.073 A 
ATOM      3  C   UNL d   1     -28.539  22.203  22.682  0.00  0.00     0.104 A 
ATOM      4  C   UNL d   1     -27.957  21.548  21.597  0.00  0.00     0.146 A 
ATOM      5  F   UNL d   1     -28.717  20.777  20.789  0.00  0.00    -0.204 F 
ATOM      6  C   UNL d   1     -26.610  21.685  21.346  0.00  0.00     0.064 A 
ATOM      7  C   UNL d   1     -25.823  22.489  22.179  0.00  0.00     0.068 A 
ENDROOT
BRANCH   3   8
ATOM      8  N   UNL d   1     -29.905  22.060  22.931  0.00  0.00    -0.178 N 
ATOM      9  C   UNL d   1     -30.466  21.548  24.047  0.00  0.00     0.351 A 
ATOM     10  N   UNL d   1     -31.803  21.592  23.883  0.00  0.00    -0.287 N 
ATOM     11  O   UNL d   1     -29.872  21.126  25.023  0.00  0.00    -0.244 OA
ATOM     12  C   UNL d   1     -32.069  22.130  22.648  0.00  0.00     0.159 A 
ATOM     13  C   UNL d   1     -32.801  21.140  24.855  0.00  0.00     0.163 C 
ATOM     14  N   UNL d   1     -30.949  22.415  22.066  0.00  0.00    -0.147 NA
BRANCH  12  15
ATOM     15  C   UNL d   1     -33.442  22.351  22.066  0.00  0.00     0.346 C 
BRANCH  15  16
ATOM     16  N   UNL d   1     -33.509  21.748  20.727  0.00  0.00     0.085 N 
ATOM     17  H   UNL d   1     -32.796  22.127  20.124  0.00  0.00     0.313 HD
ATOM     18  H   UNL d   1     -33.442  20.742  20.780  0.00  0.00     0.313 HD
ENDBRANCH  15  16
ENDBRANCH  12  15
ENDBRANCH   3   8
BRANCH   1  19
ATOM     19  O   UNL d   1     -25.650  23.919  24.087  0.00  0.00    -0.345 OA
BRANCH  19  20
ATOM     20  C   UNL d   1     -25.982  25.307  24.155  0.00  0.00     0.124 C 
ATOM     21  C   UNL d   1     -26.294  25.686  25.604  0.00  0.00     0.040 C 
BRANCH  20  22
ATOM     22  C   UNL d   1     -24.802  26.139  23.652  0.00  0.00     0.032 C 
BRANCH  22  23
ATOM     23  C   UNL d   1     -23.710  26.176  24.723  0.00  0.00    -0.002 C 
ATOM     24  C   UNL d   1     -22.495  26.936  24.187  0.00  0.00     0.005 C 
ENDBRANCH  22  23
ENDBRANCH  20  22
ENDBRANCH  19  20
ENDBRANCH   1  19
BRANCH   7  25
ATOM     25  C   UNL d   1     -24.384  22.643  21.910  0.00  0.00     0.259 C 
ATOM     26  O   UNL d   1     -23.723  21.682  21.566  0.00  0.00    -0.267 OA
ATOM     27  N   UNL d   1     -23.797  23.850  22.045  0.00  0.00    -0.322 N 
ATOM     28  H   UNL d   1     -24.306  24.600  22.389  0.00  0.00     0.169 HD
BRANCH  27  29
ATOM     29  C   UNL d   1     -22.456  24.019  21.691  0.00  0.00     0.041 A 
ATOM     30  C   UNL d   1     -21.452  23.740  22.608  0.00  0.00    -0.035 A 
ATOM     31  C   UNL d   1     -20.128  23.908  22.255  0.00  0.00     0.009 A 
ATOM     32  C   UNL d   1     -21.808  23.254  23.990  0.00  0.00     0.050 C 
ATOM     33  C   UNL d   1     -19.801  24.354  20.987  0.00  0.00     0.001 A 
ATOM     34  C   UNL d   1     -20.797  24.633  20.070  0.00  0.00     0.002 A 
ATOM     35  C   UNL d   1     -22.123  24.461  20.415  0.00  0.00     0.030 A 
ENDBRANCH  27  29
ENDBRANCH   7  25
TORSDOF 9
ENDMDL
