MODEL 1
REMARK VINA RESULT:      -7.9      0.000      0.000
REMARK  6 active torsions:
REMARK  status: ('A' for Active; 'I' for Inactive)
REMARK    1  A    between atoms: C_2  and  O_3 
REMARK    2  A    between atoms: C_2  and  C_32 
REMARK    3  A    between atoms: O_3  and  C_4 
REMARK    4  A    between atoms: C_6  and  N_7 
REMARK    5  A    between atoms: C_20  and  C_21 
REMARK       I    between atoms: C_21  and  N_23 
REMARK    6  A    between atoms: N_23  and  C_24 
ROOT
ATOM      1  C   UNL d   1     -19.600  26.098  24.927  0.00  0.00     0.087 A 
ATOM      2  C   UNL d   1     -20.315  25.274  24.075  0.00  0.00     0.073 A 
ATOM      3  C   UNL d   1     -21.642  25.556  23.785  0.00  0.00     0.104 A 
ATOM      4  C   UNL d   1     -22.259  26.679  24.339  0.00  0.00     0.146 A 
ATOM      5  F   UNL d   1     -23.549  26.951  24.047  0.00  0.00    -0.204 F 
ATOM      6  C   UNL d   1     -21.555  27.508  25.182  0.00  0.00     0.064 A 
ATOM      7  C   UNL d   1     -20.219  27.227  25.485  0.00  0.00     0.068 A 
ENDROOT
BRANCH   7   8
ATOM      8  C   UNL d   1     -19.462  28.113  26.388  0.00  0.00     0.254 C 
ATOM      9  O   UNL d   1     -19.938  28.440  27.458  0.00  0.00    -0.268 OA
ATOM     10  N   UNL d   1     -18.244  28.560  26.027  0.00  0.00    -0.352 N 
ATOM     11  H   UNL d   1     -17.863  28.299  25.173  0.00  0.00     0.163 HD
BRANCH  10  12
ATOM     12  C   UNL d   1     -17.491  29.441  26.924  0.00  0.00     0.086 C 
ATOM     13  C   UNL d   1     -16.113  28.839  27.180  0.00  0.00     0.040 C 
ATOM     14  C   UNL d   1     -15.410  29.602  28.306  0.00  0.00     0.142 C 
ATOM     15  S   UNL d   1     -15.133  31.317  27.775  0.00  0.00     0.144 S 
ATOM     16  C   UNL d   1     -16.814  31.820  27.306  0.00  0.00     0.142 C 
ATOM     17  O   UNL d   1     -14.728  32.082  28.903  0.00  0.00    -0.228 OA
ATOM     18  O   UNL d   1     -14.317  31.307  26.612  0.00  0.00    -0.228 OA
ATOM     19  C   UNL d   1     -17.366  30.821  26.287  0.00  0.00     0.040 C 
ENDBRANCH  10  12
ENDBRANCH   7   8
BRANCH   1  20
ATOM     20  O   UNL d   1     -18.304  25.819  25.216  0.00  0.00    -0.345 OA
BRANCH  20  21
ATOM     21  C   UNL d   1     -17.428  25.595  24.109  0.00  0.00     0.129 C 
ATOM     22  C   UNL d   1     -17.445  26.818  23.190  0.00  0.00     0.040 C 
BRANCH  21  23
ATOM     23  C   UNL d   1     -16.005  25.364  24.624  0.00  0.00     0.015 C 
ATOM     24  C   UNL d   1     -15.122  26.550  24.232  0.00  0.00     0.007 C 
ATOM     25  C   UNL d   1     -13.700  26.320  24.746  0.00  0.00     0.000 C 
ATOM     26  C   UNL d   1     -13.725  26.184  26.271  0.00  0.00     0.000 C 
ATOM     27  C   UNL d   1     -14.608  24.998  26.663  0.00  0.00     0.000 C 
ATOM     28  C   UNL d   1     -16.030  25.229  26.148  0.00  0.00     0.007 C 
ENDBRANCH  21  23
ENDBRANCH  20  21
ENDBRANCH   1  20
BRANCH   3  29
ATOM     29  N   UNL d   1     -22.362  24.719  22.930  0.00  0.00    -0.178 N 
ATOM     30  C   UNL d   1     -22.204  24.615  21.592  0.00  0.00     0.351 A 
ATOM     31  N   UNL d   1     -23.067  23.682  21.158  0.00  0.00    -0.284 N 
ATOM     32  O   UNL d   1     -21.422  25.249  20.907  0.00  0.00    -0.244 OA
ATOM     33  C   UNL d   1     -23.795  23.228  22.238  0.00  0.00     0.131 A 
ATOM     34  C   UNL d   1     -23.226  23.181  19.788  0.00  0.00     0.135 C 
ATOM     35  N   UNL d   1     -23.377  23.825  23.302  0.00  0.00    -0.149 NA
ATOM     36  C   UNL d   1     -24.904  22.207  22.133  0.00  0.00     0.081 C 
ATOM     37  C   UNL d   1     -24.743  21.467  20.797  0.00  0.00     0.009 C 
ATOM     38  C   UNL d   1     -24.592  22.496  19.671  0.00  0.00     0.021 C 
ENDBRANCH   3  29
TORSDOF 6
ENDMDL
