MODEL 1
REMARK VINA RESULT:     -11.8      0.000      0.000
REMARK  5 active torsions:
REMARK  status: ('A' for Active; 'I' for Inactive)
REMARK    1  A    between atoms: C_4  and  C_5 
REMARK    2  A    between atoms: C_8  and  C_9 
REMARK    3  A    between atoms: C_14  and  O_15 
REMARK    4  A    between atoms: O_15  and  C_16 
REMARK    5  A    between atoms: C_29  and  O_30 
ROOT
ATOM      1  N   UNL d   1     -27.553  21.648  26.910  0.00  0.00    -0.191 NA
ATOM      2  C   UNL d   1     -28.313  21.738  26.071  0.00  0.00     0.104 C 
ATOM      3  C   UNL d   1     -29.271  21.852  25.013  0.00  0.00     0.108 A 
ATOM      4  C   UNL d   1     -28.869  22.285  23.728  0.00  0.00     0.091 A 
ATOM      5  N   UNL d   1     -29.735  22.398  22.739  0.00  0.00    -0.246 NA
ATOM      6  C   UNL d   1     -31.027  22.110  22.903  0.00  0.00     0.073 A 
ATOM      7  C   UNL d   1     -31.950  22.231  21.845  0.00  0.00     0.052 A 
ATOM      8  C   UNL d   1     -33.256  21.922  22.075  0.00  0.00     0.118 A 
ATOM      9  N   UNL d   1     -33.681  21.512  23.262  0.00  0.00    -0.272 NA
ATOM     10  C   UNL d   1     -32.878  21.377  24.293  0.00  0.00     0.133 A 
ATOM     11  C   UNL d   1     -31.515  21.670  24.160  0.00  0.00     0.045 A 
ATOM     12  C   UNL d   1     -30.616  21.538  25.241  0.00  0.00     0.102 A 
ENDROOT
BRANCH  12  13
ATOM     13  O   UNL d   1     -31.040  21.121  26.456  0.00  0.00    -0.358 OA
ATOM     14  H   UNL d   1     -31.012  20.161  26.575  0.00  0.00     0.217 HD
ENDBRANCH  12  13
BRANCH   4  15
ATOM     15  C   UNL d   1     -27.448  22.619  23.488  0.00  0.00    -0.006 A 
ATOM     16  C   UNL d   1     -26.658  21.784  22.695  0.00  0.00     0.014 A 
ATOM     17  C   UNL d   1     -25.336  22.096  22.471  0.00  0.00     0.013 A 
ATOM     18  C   UNL d   1     -24.785  23.245  23.037  0.00  0.00    -0.023 A 
ATOM     19  C   UNL d   1     -25.573  24.081  23.830  0.00  0.00     0.013 A 
ATOM     20  C   UNL d   1     -26.897  23.772  24.050  0.00  0.00     0.014 A 
BRANCH  18  21
ATOM     21  C   UNL d   1     -23.361  23.580  22.797  0.00  0.00     0.008 A 
ATOM     22  C   UNL d   1     -22.930  23.939  21.516  0.00  0.00     0.089 A 
ATOM     23  C   UNL d   1     -21.597  24.250  21.300  0.00  0.00     0.038 A 
ATOM     24  C   UNL d   1     -20.698  24.206  22.349  0.00  0.00     0.003 A 
ATOM     25  C   UNL d   1     -21.121  23.852  23.618  0.00  0.00     0.001 A 
ATOM     26  C   UNL d   1     -22.446  23.544  23.847  0.00  0.00     0.015 A 
BRANCH  22  27
ATOM     27  O   UNL d   1     -23.815  23.982  20.486  0.00  0.00    -0.254 OA
BRANCH  27  28
ATOM     28  C   UNL d   1     -23.713  22.953  19.499  0.00  0.00     0.530 C 
ATOM     29  F   UNL d   1     -22.498  23.079  18.818  0.00  0.00    -0.144 F 
ATOM     30  F   UNL d   1     -23.772  21.702  20.121  0.00  0.00    -0.144 F 
ATOM     31  F   UNL d   1     -24.771  23.074  18.591  0.00  0.00    -0.144 F 
ENDBRANCH  27  28
ENDBRANCH  22  27
ENDBRANCH  18  21
ENDBRANCH   4  15
TORSDOF 5
ENDMDL
