MODEL 1
REMARK VINA RESULT:     -11.8      0.000      0.000
REMARK  7 active torsions:
REMARK  status: ('A' for Active; 'I' for Inactive)
REMARK    1  A    between atoms: C_2  and  O_3 
REMARK    2  A    between atoms: C_2  and  C_4 
REMARK    3  A    between atoms: C_6  and  C_7 
REMARK    4  A    between atoms: C_12  and  N_13 
REMARK    5  A    between atoms: N_13  and  C_14 
REMARK    6  A    between atoms: C_17  and  C_18 
REMARK    7  A    between atoms: C_21  and  C_22 
ROOT
ATOM      1  C   UNL d   1     -27.136  22.352  23.570  0.00  0.00     0.051 A 
ATOM      2  C   UNL d   1     -27.071  21.571  22.422  0.00  0.00     0.146 A 
ATOM      3  N   UNL d   1     -26.030  21.637  21.616  0.00  0.00    -0.262 NA
ATOM      4  C   UNL d   1     -25.013  22.438  21.857  0.00  0.00     0.049 A 
ATOM      5  C   UNL d   1     -24.999  23.254  22.986  0.00  0.00     0.001 A 
ATOM      6  C   UNL d   1     -26.087  23.217  23.862  0.00  0.00     0.045 A 
ENDROOT
BRANCH   1   7
ATOM      7  N   UNL d   1     -28.246  22.275  24.418  0.00  0.00    -0.354 N 
ATOM      8  H   UNL d   1     -28.124  22.317  25.379  0.00  0.00     0.166 HD
BRANCH   7   9
ATOM      9  C   UNL d   1     -29.520  22.140  23.883  0.00  0.00     0.049 A 
ATOM     10  C   UNL d   1     -30.548  21.566  24.647  0.00  0.00     0.064 A 
ATOM     11  C   UNL d   1     -31.827  21.434  24.096  0.00  0.00     0.028 A 
ATOM     12  C   UNL d   1     -32.069  21.869  22.813  0.00  0.00    -0.053 A 
ATOM     13  C   UNL d   1     -31.050  22.430  22.058  0.00  0.00     0.010 A 
ATOM     14  C   UNL d   1     -29.784  22.571  22.589  0.00  0.00     0.031 A 
BRANCH  10  15
ATOM     15  C   UNL d   1     -30.283  21.104  26.020  0.00  0.00     0.178 C 
ATOM     16  O   UNL d   1     -29.917  21.894  26.867  0.00  0.00    -0.646 OA
BRANCH  15  17
ATOM     17  O   UNL d   1     -30.445  19.804  26.338  0.00  0.00    -0.773 OA
ATOM     18  H   UNL d   1     -29.686  19.349  26.728  0.00  0.00     0.167 HD
ENDBRANCH  15  17
ENDBRANCH  10  15
BRANCH  12  19
ATOM     19  C   UNL d   1     -33.447  21.726  22.220  0.00  0.00     0.018 A 
ATOM     20  C   UNL d   1     -34.238  20.462  22.564  0.00  0.00     0.010 A 
ATOM     21  C   UNL d   1     -33.653  20.640  21.162  0.00  0.00     0.010 A 
ENDBRANCH  12  19
ENDBRANCH   7   9
ENDBRANCH   1   7
BRANCH   5  22
ATOM     22  C   UNL d   1     -23.849  24.154  23.251  0.00  0.00    -0.024 A 
ATOM     23  C   UNL d   1     -23.986  25.531  23.086  0.00  0.00     0.012 A 
ATOM     24  C   UNL d   1     -22.913  26.363  23.333  0.00  0.00     0.001 A 
ATOM     25  C   UNL d   1     -21.705  25.833  23.745  0.00  0.00     0.000 A 
ATOM     26  C   UNL d   1     -21.563  24.467  23.912  0.00  0.00     0.001 A 
ATOM     27  C   UNL d   1     -22.630  23.626  23.672  0.00  0.00     0.012 A 
ENDBRANCH   5  22
BRANCH   4  28
ATOM     28  C   UNL d   1     -23.850  22.472  20.899  0.00  0.00     0.038 A 
ATOM     29  C   UNL d   1     -24.133  22.145  19.432  0.00  0.00     0.011 A 
ATOM     30  C   UNL d   1     -23.831  23.586  19.850  0.00  0.00     0.011 A 
ENDBRANCH   4  28
TORSDOF 7
ENDMDL
