MODEL 1
REMARK VINA RESULT:      -9.5      0.000      0.000
REMARK  10 active torsions:
REMARK  status: ('A' for Active; 'I' for Inactive)
REMARK    1  A    between atoms: C_2  and  N_3 
REMARK    2  A    between atoms: C_4  and  C_5 
REMARK    3  A    between atoms: C_5  and  O_6 
REMARK    4  A    between atoms: N_8  and  C_9 
REMARK    5  A    between atoms: C_11  and  O_12 
REMARK    6  A    between atoms: O_12  and  C_13 
REMARK    7  A    between atoms: C_13  and  C_15 
REMARK    8  A    between atoms: C_19  and  C_20 
REMARK       I    between atoms: C_20  and  N_22 
REMARK    9  A    between atoms: N_22  and  C_23 
REMARK   10  A    between atoms: C_28  and  O_29 
ROOT
ATOM      1  C   UNL d   1     -20.397  24.842  23.608  0.00  0.00     0.101 A 
ATOM      2  C   UNL d   1     -19.646  24.383  22.525  0.00  0.00     0.162 A 
ATOM      3  F   UNL d   1     -20.170  23.484  21.663  0.00  0.00    -0.202 F 
ATOM      4  C   UNL d   1     -18.363  24.857  22.343  0.00  0.00     0.164 A 
ATOM      5  N   UNL d   1     -17.833  25.738  23.173  0.00  0.00    -0.233 NA
ATOM      6  C   UNL d   1     -18.497  26.207  24.214  0.00  0.00     0.187 A 
ATOM      7  C   UNL d   1     -19.809  25.783  24.473  0.00  0.00     0.127 A 
ATOM      8  C   UNL d   1     -20.534  26.294  25.596  0.00  0.00     0.106 C 
ATOM      9  N   UNL d   1     -21.109  26.699  26.489  0.00  0.00    -0.191 NA
ENDROOT
BRANCH   1  10
ATOM     10  N   UNL d   1     -21.694  24.387  23.823  0.00  0.00    -0.319 N 
ATOM     11  C   UNL d   1     -22.731  25.001  23.220  0.00  0.00     0.260 C 
ATOM     12  O   UNL d   1     -22.544  26.006  22.562  0.00  0.00    -0.267 OA
ATOM     13  H   UNL d   1     -21.852  23.630  24.407  0.00  0.00     0.169 HD
BRANCH  11  14
ATOM     14  C   UNL d   1     -24.091  24.454  23.358  0.00  0.00     0.088 A 
ATOM     15  C   UNL d   1     -24.532  23.418  22.520  0.00  0.00     0.183 A 
ATOM     16  N   UNL d   1     -25.751  22.924  22.648  0.00  0.00    -0.201 NA
ATOM     17  C   UNL d   1     -26.599  23.386  23.555  0.00  0.00     0.197 A 
ATOM     18  C   UNL d   1     -26.232  24.413  24.423  0.00  0.00     0.165 A 
ATOM     19  C   UNL d   1     -24.967  24.958  24.331  0.00  0.00     0.068 A 
ATOM     20  F   UNL d   1     -27.106  24.870  25.346  0.00  0.00    -0.202 F 
BRANCH  15  21
ATOM     21  O   UNL d   1     -23.701  22.919  21.575  0.00  0.00    -0.319 OA
BRANCH  21  22
ATOM     22  C   UNL d   1     -23.857  23.416  20.244  0.00  0.00     0.234 C 
ATOM     23  C   UNL d   1     -22.494  23.839  19.694  0.00  0.00     0.049 C 
BRANCH  22  24
ATOM     24  C   UNL d   1     -24.447  22.319  19.355  0.00  0.00     0.413 C 
ATOM     25  F   UNL d   1     -25.702  21.945  19.847  0.00  0.00    -0.168 F 
ATOM     26  F   UNL d   1     -24.583  22.800  18.048  0.00  0.00    -0.168 F 
ATOM     27  F   UNL d   1     -23.596  21.208  19.358  0.00  0.00    -0.168 F 
ENDBRANCH  22  24
ENDBRANCH  21  22
ENDBRANCH  15  21
BRANCH  17  28
ATOM     28  N   UNL d   1     -27.873  22.833  23.645  0.00  0.00    -0.159 N 
ATOM     29  N   UNL d   1     -28.904  22.966  22.705  0.00  0.00    -0.145 NA
ATOM     30  C   UNL d   1     -29.931  22.306  23.137  0.00  0.00     0.154 A 
ATOM     31  N   UNL d   1     -29.617  21.742  24.349  0.00  0.00    -0.283 N 
ATOM     32  C   UNL d   1     -28.345  22.069  24.652  0.00  0.00     0.352 A 
ATOM     33  O   UNL d   1     -27.733  21.737  25.652  0.00  0.00    -0.244 OA
BRANCH  30  34
ATOM     34  C   UNL d   1     -31.256  22.182  22.429  0.00  0.00     0.244 C 
BRANCH  34  35
ATOM     35  O   UNL d   1     -31.059  22.334  21.022  0.00  0.00    -0.393 OA
ATOM     36  H   UNL d   1     -31.455  23.136  20.654  0.00  0.00     0.209 HD
ENDBRANCH  34  35
ENDBRANCH  30  34
BRANCH  31  37
ATOM     37  C   UNL d   1     -30.510  20.922  25.170  0.00  0.00     0.131 C 
ATOM     38  C   UNL d   1     -31.602  21.804  25.776  0.00  0.00     0.027 C 
ENDBRANCH  31  37
ENDBRANCH  17  28
ENDBRANCH  11  14
ENDBRANCH   1  10
BRANCH   6  39
ATOM     39  O   UNL d   1     -17.907  27.109  25.037  0.00  0.00    -0.338 OA
ATOM     40  C   UNL d   1     -16.617  27.588  24.655  0.00  0.00     0.211 C 
ENDBRANCH   6  39
TORSDOF 10
ENDMDL
