MODEL 1
REMARK VINA RESULT:     -13.2      0.000      0.000
REMARK  5 active torsions:
REMARK  status: ('A' for Active; 'I' for Inactive)
REMARK       I    between atoms: C_2  and  N_3 
REMARK    1  A    between atoms: C_2  and  C_24 
REMARK    2  A    between atoms: N_3  and  C_4 
REMARK    3  A    between atoms: C_9  and  C_10 
REMARK    4  A    between atoms: C_14  and  C_15 
REMARK    5  A    between atoms: C_25  and  O_26 
ROOT
ATOM      1  C   UNL d   1     -26.800  22.534  23.244  0.00  0.00     0.119 A 
ATOM      2  C   UNL d   1     -26.103  21.896  22.224  0.00  0.00     0.185 A 
ATOM      3  F   UNL d   1     -26.604  20.773  21.664  0.00  0.00    -0.200 F 
ATOM      4  C   UNL d   1     -24.899  22.412  21.779  0.00  0.00     0.171 A 
ATOM      5  F   UNL d   1     -24.226  21.792  20.785  0.00  0.00    -0.202 F 
ATOM      6  C   UNL d   1     -24.379  23.568  22.362  0.00  0.00     0.058 A 
ATOM      7  C   UNL d   1     -25.078  24.204  23.388  0.00  0.00     0.171 A 
ATOM      8  F   UNL d   1     -24.577  25.324  23.955  0.00  0.00    -0.202 F 
ATOM      9  C   UNL d   1     -26.284  23.687  23.826  0.00  0.00     0.185 A 
ATOM     10  F   UNL d   1     -26.961  24.302  24.820  0.00  0.00    -0.200 F 
ENDROOT
BRANCH   1  11
ATOM     11  N   UNL d   1     -28.021  22.014  23.689  0.00  0.00    -0.317 N 
ATOM     12  C   UNL d   1     -29.177  22.456  23.155  0.00  0.00     0.263 C 
ATOM     13  O   UNL d   1     -29.156  23.239  22.223  0.00  0.00    -0.267 OA
ATOM     14  H   UNL d   1     -28.035  21.331  24.378  0.00  0.00     0.169 HD
BRANCH  12  15
ATOM     15  C   UNL d   1     -30.455  21.994  23.695  0.00  0.00     0.115 A 
ATOM     16  C   UNL d   1     -31.657  21.819  22.978  0.00  0.00     0.078 A 
ATOM     17  N   UNL d   1     -32.591  21.373  23.867  0.00  0.00    -0.242 N 
ATOM     18  C   UNL d   1     -31.998  22.011  21.633  0.00  0.00     0.033 A 
ATOM     19  N   UNL d   1     -31.983  21.280  25.125  0.00  0.00    -0.141 NA
ATOM     20  C   UNL d   1     -33.860  21.112  23.450  0.00  0.00     0.119 A 
ATOM     21  C   UNL d   1     -30.726  21.643  25.034  0.00  0.00     0.200 A 
ATOM     22  C   UNL d   1     -34.216  21.297  22.158  0.00  0.00     0.019 A 
ATOM     23  C   UNL d   1     -33.274  21.750  21.225  0.00  0.00     0.004 A 
BRANCH  21  24
ATOM     24  O   UNL d   1     -29.835  21.675  26.057  0.00  0.00    -0.343 OA
ATOM     25  H   UNL d   1     -30.224  21.496  26.924  0.00  0.00     0.219 HD
ENDBRANCH  21  24
ENDBRANCH  12  15
ENDBRANCH   1  11
BRANCH   6  26
ATOM     26  C   UNL d   1     -23.087  24.121  21.890  0.00  0.00    -0.019 A 
ATOM     27  C   UNL d   1     -22.058  24.367  22.797  0.00  0.00     0.028 A 
ATOM     28  C   UNL d   1     -20.855  24.877  22.350  0.00  0.00     0.048 A 
ATOM     29  C   UNL d   1     -20.674  25.154  21.007  0.00  0.00     0.016 A 
ATOM     30  C   UNL d   1     -21.694  24.916  20.103  0.00  0.00     0.002 A 
ATOM     31  C   UNL d   1     -22.899  24.402  20.537  0.00  0.00     0.012 A 
BRANCH  28  32
ATOM     32  C   UNL d   1     -19.739  25.138  23.329  0.00  0.00     0.417 C 
ATOM     33  F   UNL d   1     -18.511  25.078  22.662  0.00  0.00    -0.166 F 
ATOM     34  F   UNL d   1     -19.902  26.407  23.894  0.00  0.00    -0.166 F 
ATOM     35  F   UNL d   1     -19.770  24.171  24.339  0.00  0.00    -0.166 F 
ENDBRANCH  28  32
ENDBRANCH   6  26
TORSDOF 5
ENDMDL
