MODEL 1
REMARK VINA RESULT:     -11.6      0.000      0.000
REMARK  4 active torsions:
REMARK  status: ('A' for Active; 'I' for Inactive)
REMARK    1  A    between atoms: C_2  and  O_3 
REMARK    2  A    between atoms: C_2  and  C_4 
REMARK    3  A    between atoms: C_6  and  C_7 
REMARK    4  A    between atoms: C_10  and  C_11 
ROOT
ATOM      1  C   UNL d   1     -30.482  21.440  24.591  0.00  0.00     0.052 A 
ATOM      2  C   UNL d   1     -29.141  21.748  24.405  0.00  0.00     0.051 A 
ATOM      3  C   UNL d   1     -28.705  22.190  23.147  0.00  0.00     0.068 A 
ATOM      4  N   UNL d   1     -29.525  22.326  22.125  0.00  0.00    -0.247 NA
ATOM      5  C   UNL d   1     -30.826  22.052  22.214  0.00  0.00     0.068 A 
ATOM      6  C   UNL d   1     -31.679  22.205  21.104  0.00  0.00     0.032 A 
ATOM      7  C   UNL d   1     -33.003  21.918  21.226  0.00  0.00     0.002 A 
ATOM      8  C   UNL d   1     -33.535  21.472  22.434  0.00  0.00     0.001 A 
ATOM      9  C   UNL d   1     -32.740  21.310  23.531  0.00  0.00     0.015 A 
ATOM     10  C   UNL d   1     -31.373  21.597  23.441  0.00  0.00     0.010 A 
ENDROOT
BRANCH   3  11
ATOM     11  C   UNL d   1     -27.272  22.517  22.962  0.00  0.00    -0.007 A 
ATOM     12  C   UNL d   1     -26.672  23.499  23.749  0.00  0.00     0.014 A 
ATOM     13  C   UNL d   1     -25.340  23.803  23.577  0.00  0.00     0.013 A 
ATOM     14  C   UNL d   1     -24.589  23.128  22.614  0.00  0.00    -0.025 A 
ATOM     15  C   UNL d   1     -25.188  22.146  21.826  0.00  0.00     0.013 A 
ATOM     16  C   UNL d   1     -26.519  21.838  22.002  0.00  0.00     0.014 A 
BRANCH  14  17
ATOM     17  C   UNL d   1     -23.155  23.455  22.428  0.00  0.00    -0.008 A 
ATOM     18  C   UNL d   1     -22.688  23.918  21.200  0.00  0.00     0.128 A 
ATOM     19  N   UNL d   1     -21.415  24.215  21.036  0.00  0.00    -0.272 NA
ATOM     20  C   UNL d   1     -20.536  24.075  22.010  0.00  0.00     0.116 A 
ATOM     21  C   UNL d   1     -20.920  23.614  23.257  0.00  0.00     0.020 A 
ATOM     22  C   UNL d   1     -22.248  23.296  23.481  0.00  0.00     0.015 A 
ENDBRANCH  14  17
ENDBRANCH   3  11
BRANCH   1  23
ATOM     23  C   UNL d   1     -30.989  20.969  25.897  0.00  0.00     0.177 C 
ATOM     24  O   UNL d   1     -31.758  21.661  26.535  0.00  0.00    -0.646 OA
BRANCH  23  25
ATOM     25  O   UNL d   1     -30.597  19.774  26.381  0.00  0.00    -0.773 OA
ATOM     26  H   UNL d   1     -31.218  19.039  26.290  0.00  0.00     0.167 HD
ENDBRANCH  23  25
ENDBRANCH   1  23
TORSDOF 4
ENDMDL
