MODEL 1
REMARK VINA RESULT:     -11.6      0.000      0.000
REMARK  3 active torsions:
REMARK  status: ('A' for Active; 'I' for Inactive)
REMARK    1  A    between atoms: C_6  and  N_7 
REMARK    2  A    between atoms: C_15  and  N_16 
REMARK       I    between atoms: N_16  and  C_17 
REMARK    3  A    between atoms: C_17  and  C_19 
ROOT
ATOM      1  N   UNL d   1     -30.151  22.093  23.810  0.00  0.00    -0.238 N 
ATOM      2  N   UNL d   1     -29.734  22.778  22.660  0.00  0.00    -0.179 NA
ATOM      3  C   UNL d   1     -28.543  23.278  22.888  0.00  0.00     0.150 A 
ATOM      4  C   UNL d   1     -28.169  22.930  24.184  0.00  0.00     0.008 A 
ATOM      5  C   UNL d   1     -29.176  22.203  24.731  0.00  0.00     0.046 A 
ATOM      6  C   UNL d   1     -29.150  21.641  26.131  0.00  0.00     0.060 C 
ATOM      7  C   UNL d   1     -28.050  22.361  26.921  0.00  0.00     0.008 C 
ATOM      8  C   UNL d   1     -26.748  22.346  26.114  0.00  0.00     0.030 C 
ATOM      9  C   UNL d   1     -26.886  23.273  24.901  0.00  0.00     0.121 C 
ENDROOT
BRANCH   9  10
ATOM     10  N   UNL d   1     -25.749  23.077  23.999  0.00  0.00    -0.347 N 
ATOM     11  C   UNL d   1     -25.109  24.144  23.479  0.00  0.00     0.273 C 
ATOM     12  O   UNL d   1     -25.477  25.268  23.759  0.00  0.00    -0.266 OA
ATOM     13  H   UNL d   1     -25.456  22.181  23.775  0.00  0.00     0.163 HD
BRANCH  11  14
ATOM     14  C   UNL d   1     -23.958  23.947  22.566  0.00  0.00     0.160 A 
ATOM     15  C   UNL d   1     -22.635  24.395  22.756  0.00  0.00     0.010 A 
ATOM     16  C   UNL d   1     -21.970  23.971  21.655  0.00  0.00     0.087 A 
ATOM     17  C   UNL d   1     -22.020  25.169  23.885  0.00  0.00     0.044 C 
ATOM     18  O   UNL d   1     -22.859  23.326  20.898  0.00  0.00    -0.217 OA
ATOM     19  C   UNL d   1     -20.506  24.224  21.411  0.00  0.00     0.068 C 
ATOM     20  N   UNL d   1     -23.959  23.317  21.411  0.00  0.00    -0.122 NA
ATOM     21  C   UNL d   1     -20.048  25.346  22.350  0.00  0.00     0.007 C 
ATOM     22  C   UNL d   1     -20.494  25.037  23.782  0.00  0.00     0.005 C 
ENDBRANCH  11  14
ENDBRANCH   9  10
BRANCH   1  23
ATOM     23  C   UNL d   1     -31.368  21.416  23.974  0.00  0.00     0.059 A 
ATOM     24  C   UNL d   1     -31.668  20.806  25.184  0.00  0.00     0.031 A 
ATOM     25  C   UNL d   1     -32.869  20.144  25.342  0.00  0.00     0.003 A 
ATOM     26  C   UNL d   1     -33.770  20.080  24.295  0.00  0.00     0.007 A 
ATOM     27  C   UNL d   1     -33.471  20.682  23.086  0.00  0.00    -0.060 A 
ATOM     28  C   UNL d   1     -34.454  20.610  21.946  0.00  0.00     0.048 C 
ATOM     29  C   UNL d   1     -32.273  21.351  22.922  0.00  0.00     0.038 A 
ENDBRANCH   1  23
TORSDOF 3
ENDMDL
