MODEL 1
REMARK VINA RESULT:      -9.8      0.000      0.000
REMARK  6 active torsions:
REMARK  status: ('A' for Active; 'I' for Inactive)
REMARK    1  A    between atoms: C_2  and  N_3 
REMARK    2  A    between atoms: C_4  and  C_5 
REMARK    3  A    between atoms: C_5  and  O_6 
REMARK    4  A    between atoms: N_8  and  C_9 
REMARK    5  A    between atoms: C_12  and  C_13 
REMARK    6  A    between atoms: N_17  and  C_18 
ROOT
ATOM      1  C   UNL d   1     -28.968  22.149  22.101  0.00  0.00     0.103 A 
ATOM      2  C   UNL d   1     -28.280  22.967  22.982  0.00  0.00     0.048 A 
ATOM      3  C   UNL d   1     -26.901  23.108  22.850  0.00  0.00    -0.010 A 
ATOM      4  C   UNL d   1     -26.118  23.953  23.754  0.00  0.00    -0.027 A 
ATOM      5  C   UNL d   1     -24.791  24.057  23.577  0.00  0.00     0.109 A 
ATOM      6  N   UNL d   1     -24.133  23.398  22.576  0.00  0.00    -0.288 N 
ATOM      7  C   UNL d   1     -24.772  22.600  21.699  0.00  0.00     0.263 A 
ATOM      8  O   UNL d   1     -24.150  22.029  20.821  0.00  0.00    -0.267 OA
ATOM      9  C   UNL d   1     -26.221  22.424  21.813  0.00  0.00     0.046 A 
ATOM     10  C   UNL d   1     -26.938  21.609  20.933  0.00  0.00     0.062 A 
ATOM     11  C   UNL d   1     -28.290  21.478  21.080  0.00  0.00     0.146 A 
ATOM     12  F   UNL d   1     -28.980  20.689  20.228  0.00  0.00    -0.204 F 
ENDROOT
BRANCH   1  13
ATOM     13  N   UNL d   1     -30.351  21.998  22.231  0.00  0.00    -0.178 N 
ATOM     14  N   UNL d   1     -31.298  22.093  21.201  0.00  0.00    -0.147 NA
ATOM     15  C   UNL d   1     -32.469  21.888  21.712  0.00  0.00     0.154 A 
ATOM     16  N   UNL d   1     -32.333  21.667  23.061  0.00  0.00    -0.283 N 
ATOM     17  C   UNL d   1     -31.022  21.733  23.372  0.00  0.00     0.351 A 
ATOM     18  O   UNL d   1     -30.535  21.582  24.476  0.00  0.00    -0.244 OA
BRANCH  15  19
ATOM     19  C   UNL d   1     -33.771  21.896  20.952  0.00  0.00     0.244 C 
BRANCH  19  20
ATOM     20  O   UNL d   1     -34.584  22.978  21.410  0.00  0.00    -0.393 OA
ATOM     21  H   UNL d   1     -34.351  23.299  22.292  0.00  0.00     0.209 HD
ENDBRANCH  19  20
ENDBRANCH  15  19
BRANCH  16  22
ATOM     22  C   UNL d   1     -33.424  21.399  24.001  0.00  0.00     0.131 C 
ATOM     23  C   UNL d   1     -33.319  19.959  24.506  0.00  0.00     0.027 C 
ENDBRANCH  16  22
ENDBRANCH   1  13
BRANCH   4  24
ATOM     24  C   UNL d   1     -26.797  24.701  24.874  0.00  0.00     0.013 C 
ATOM     25  C   UNL d   1     -26.934  23.784  26.090  0.00  0.00     0.015 C 
ATOM     26  C   UNL d   1     -25.961  25.927  25.248  0.00  0.00     0.015 C 
ENDBRANCH   4  24
BRANCH   6  27
ATOM     27  C   UNL d   1     -22.747  23.558  22.460  0.00  0.00     0.051 A 
ATOM     28  C   UNL d   1     -22.218  24.286  21.402  0.00  0.00     0.004 A 
ATOM     29  C   UNL d   1     -20.848  24.442  21.289  0.00  0.00     0.124 A 
ATOM     30  C   UNL d   1     -23.134  24.905  20.379  0.00  0.00     0.054 C 
ATOM     31  C   UNL d   1     -20.006  23.873  22.231  0.00  0.00     0.043 A 
ATOM     32  F   UNL d   1     -20.332  25.150  20.261  0.00  0.00    -0.205 F 
ATOM     33  C   UNL d   1     -20.532  23.149  23.285  0.00  0.00     0.005 A 
ATOM     34  C   UNL d   1     -21.900  22.995  23.405  0.00  0.00     0.031 A 
ENDBRANCH   6  27
TORSDOF 6
ENDMDL
