MODEL 1
REMARK VINA RESULT:     -10.6      0.000      0.000
REMARK  7 active torsions:
REMARK  status: ('A' for Active; 'I' for Inactive)
REMARK    1  A    between atoms: C_2  and  O_3 
REMARK    2  A    between atoms: O_3  and  C_4 
REMARK    3  A    between atoms: C_6  and  N_7 
REMARK       I    between atoms: N_7  and  C_8 
REMARK    4  A    between atoms: C_8  and  C_10 
REMARK    5  A    between atoms: C_13  and  O_15 
REMARK    6  A    between atoms: C_19  and  C_20 
REMARK       I    between atoms: C_20  and  N_22 
REMARK    7  A    between atoms: N_22  and  C_23 
ROOT
ATOM      1  C   UNL d   1     -31.803  20.734  25.080  0.00  0.00     0.141 C 
ATOM      2  C   UNL d   1     -31.671  19.652  26.008  0.00  0.00     0.107 C 
ATOM      3  N   UNL d   1     -31.566  18.794  26.745  0.00  0.00    -0.191 NA
ATOM      4  C   UNL d   1     -33.028  21.050  24.571  0.00  0.00     0.065 C 
ATOM      5  C   UNL d   1     -34.243  20.259  24.984  0.00  0.00     0.077 C 
ENDROOT
BRANCH   1   6
ATOM      6  C   UNL d   1     -30.618  21.505  24.677  0.00  0.00     0.269 C 
ATOM      7  N   UNL d   1     -29.411  21.206  25.195  0.00  0.00    -0.320 N 
ATOM      8  H   UNL d   1     -29.335  20.531  25.887  0.00  0.00     0.169 HD
ATOM      9  O   UNL d   1     -30.728  22.414  23.875  0.00  0.00    -0.266 OA
BRANCH   7  10
ATOM     10  C   UNL d   1     -28.272  21.866  24.736  0.00  0.00     0.076 A 
ATOM     11  C   UNL d   1     -27.911  21.775  23.399  0.00  0.00     0.070 A 
ATOM     12  C   UNL d   1     -26.783  22.433  22.939  0.00  0.00     0.086 A 
ATOM     13  C   UNL d   1     -26.000  23.182  23.830  0.00  0.00     0.068 A 
ATOM     14  C   UNL d   1     -26.371  23.269  25.177  0.00  0.00     0.064 A 
ATOM     15  C   UNL d   1     -27.497  22.614  25.623  0.00  0.00     0.144 A 
ATOM     16  F   UNL d   1     -27.854  22.699  26.923  0.00  0.00    -0.204 F 
BRANCH  12  17
ATOM     17  O   UNL d   1     -26.433  22.349  21.630  0.00  0.00    -0.350 OA
BRANCH  17  18
ATOM     18  C   UNL d   1     -26.653  21.097  20.979  0.00  0.00     0.171 C 
ATOM     19  C   UNL d   1     -28.033  21.102  20.318  0.00  0.00     0.034 C 
ENDBRANCH  17  18
ENDBRANCH  12  17
BRANCH  13  20
ATOM     20  C   UNL d   1     -24.797  23.880  23.349  0.00  0.00     0.259 C 
ATOM     21  O   UNL d   1     -24.720  25.091  23.436  0.00  0.00    -0.267 OA
ATOM     22  N   UNL d   1     -23.780  23.178  22.811  0.00  0.00    -0.319 N 
ATOM     23  H   UNL d   1     -23.873  22.224  22.666  0.00  0.00     0.169 HD
BRANCH  22  24
ATOM     24  C   UNL d   1     -22.589  23.827  22.463  0.00  0.00     0.096 A 
ATOM     25  C   UNL d   1     -22.363  24.209  21.146  0.00  0.00     0.064 A 
ATOM     26  C   UNL d   1     -21.186  24.848  20.805  0.00  0.00     0.026 A 
ATOM     27 CL   UNL d   1     -23.558  23.883  19.930  0.00  0.00    -0.082 Cl
ATOM     28  C   UNL d   1     -20.233  25.108  21.773  0.00  0.00     0.005 A 
ATOM     29  C   UNL d   1     -20.454  24.731  23.085  0.00  0.00     0.045 A 
ATOM     30  C   UNL d   1     -21.628  24.090  23.433  0.00  0.00     0.144 A 
ATOM     31  F   UNL d   1     -21.846  23.726  24.716  0.00  0.00    -0.204 F 
ENDBRANCH  22  24
ENDBRANCH  13  20
ENDBRANCH   7  10
ENDBRANCH   1   6
BRANCH   4  32
ATOM     32  O   UNL d   1     -33.152  22.066  23.700  0.00  0.00    -0.364 OA
ATOM     33  H   UNL d   1     -32.335  22.435  23.337  0.00  0.00     0.217 HD
ENDBRANCH   4  32
TORSDOF 7
ENDMDL
