MODEL 1
REMARK VINA RESULT:      -9.8      0.000      0.000
REMARK  7 active torsions:
REMARK  status: ('A' for Active; 'I' for Inactive)
REMARK    1  A    between atoms: O_2  and  C_3 
REMARK    2  A    between atoms: C_8  and  C_9 
REMARK    3  A    between atoms: C_9  and  C_10 
REMARK    4  A    between atoms: C_10  and  C_11 
REMARK    5  A    between atoms: CA_12  and  C_13 
REMARK    6  A    between atoms: C_13  and  OXT_15 
REMARK    7  A    between atoms: C_24  and  O_25 
ROOT
ATOM      1  C   UNL d   1     -28.833  21.480  23.675  0.00  0.00     0.046 C 
ENDROOT
BRANCH   1   2
ATOM      2  C   UNL d   1     -27.502  22.055  23.263  0.00  0.00    -0.024 A 
ATOM      3  C   UNL d   1     -26.988  21.743  22.043  0.00  0.00     0.022 A 
ATOM      4  C   UNL d   1     -25.747  22.277  21.652  0.00  0.00    -0.025 A 
ATOM      5  C   UNL d   1     -25.187  21.975  20.399  0.00  0.00     0.015 A 
ATOM      6  C   UNL d   1     -25.049  23.136  22.538  0.00  0.00    -0.021 A 
ATOM      7  C   UNL d   1     -23.985  22.507  20.051  0.00  0.00     0.037 A 
ATOM      8  C   UNL d   1     -23.291  23.350  20.925  0.00  0.00     0.069 A 
ATOM      9  C   UNL d   1     -23.809  23.670  22.148  0.00  0.00     0.049 A 
ATOM     10  C   UNL d   1     -25.609  23.438  23.791  0.00  0.00     0.049 A 
ATOM     11  C   UNL d   1     -26.816  22.902  24.137  0.00  0.00     0.075 A 
BRANCH   8  12
ATOM     12  O   UNL d   1     -22.090  23.863  20.551  0.00  0.00    -0.356 OA
ATOM     13  C   UNL d   1     -21.533  24.885  21.380  0.00  0.00     0.210 C 
ENDBRANCH   8  12
BRANCH  11  14
ATOM     14  O   UNL d   1     -27.356  23.194  25.350  0.00  0.00    -0.355 OA
ATOM     15  C   UNL d   1     -27.067  22.295  26.423  0.00  0.00     0.210 C 
ENDBRANCH  11  14
ENDBRANCH   1   2
BRANCH   1  16
ATOM     16  C   UNL d   1     -29.907  22.566  23.591  0.00  0.00     0.051 C 
BRANCH  16  17
ATOM     17  C   UNL d   1     -31.209  21.952  23.149  0.00  0.00     0.044 A 
ATOM     18  C   UNL d   1     -31.640  22.027  21.748  0.00  0.00     0.258 A 
ATOM     19  N   UNL d   1     -32.812  21.459  21.395  0.00  0.00    -0.275 N 
ATOM     20  O   UNL d   1     -30.950  22.589  20.917  0.00  0.00    -0.267 OA
ATOM     21  C   UNL d   1     -33.574  20.844  22.316  0.00  0.00     0.327 A 
ATOM     22  H   UNL d   1     -33.108  21.497  20.472  0.00  0.00     0.173 HD
ATOM     23  N   UNL d   1     -33.204  20.766  23.605  0.00  0.00    -0.302 N 
ATOM     24  O   UNL d   1     -34.628  20.343  21.973  0.00  0.00    -0.247 OA
ATOM     25  CA  UNL d   1     -32.017  21.318  24.040  0.00  0.00     0.122 A 
ATOM     26  H   UNL d   1     -33.780  20.315  24.240  0.00  0.00     0.171 HD
BRANCH  25  27
ATOM     27  C   UNL d   1     -31.627  21.221  25.466  0.00  0.00     0.194 C 
ATOM     28  O   UNL d   1     -31.769  22.178  26.201  0.00  0.00    -0.645 OA
BRANCH  27  29
ATOM     29  OXT UNL d   1     -31.114  20.073  25.949  0.00  0.00    -0.772 OA
ATOM     30  HXT UNL d   1     -30.150  20.001  25.979  0.00  0.00     0.167 HD
ENDBRANCH  27  29
ENDBRANCH  25  27
ENDBRANCH  16  17
ENDBRANCH   1  16
TORSDOF 7
ENDMDL
