MODEL 1
REMARK VINA RESULT:      -8.6      0.000      0.000
REMARK  3 active torsions:
REMARK  status: ('A' for Active; 'I' for Inactive)
REMARK    1  A    between atoms: C_2  and  C_4 
REMARK    2  A    between atoms: C_6  and  N_7 
REMARK    3  A    between atoms: N_7  and  C_8 
ROOT
ATOM      1  N   UNL d   1     -25.936  21.206  21.593  0.00  0.00    -0.335 N 
ATOM      2  H   UNL d   1     -25.726  20.289  21.354  0.00  0.00     0.168 HD
ENDROOT
BRANCH   1   3
ATOM      3  C   UNL d   1     -24.972  22.184  21.487  0.00  0.00     0.172 A 
ATOM      4  S   UNL d   1     -24.028  22.472  20.091  0.00  0.00    -0.046 SA
ATOM      5  C   UNL d   1     -23.194  23.790  20.911  0.00  0.00     0.078 A 
ATOM      6  C   UNL d   1     -23.715  23.890  22.179  0.00  0.00     0.054 A 
ATOM      7  N   UNL d   1     -24.656  23.022  22.435  0.00  0.00    -0.228 NA
ATOM      8  C   UNL d   1     -23.247  24.914  23.181  0.00  0.00     0.072 C 
BRANCH   5   9
ATOM      9  C   UNL d   1     -22.178  24.596  20.366  0.00  0.00     0.164 C 
ATOM     10  C   UNL d   1     -20.755  24.438  20.837  0.00  0.00     0.097 C 
ATOM     11  O   UNL d   1     -22.448  25.419  19.513  0.00  0.00    -0.292 OA
ENDBRANCH   5   9
ENDBRANCH   1   3
BRANCH   1  12
ATOM     12  C   UNL d   1     -27.216  21.534  22.048  0.00  0.00     0.034 A 
ATOM     13  C   UNL d   1     -28.240  21.761  21.138  0.00  0.00     0.036 A 
ATOM     14  C   UNL d   1     -29.505  22.084  21.591  0.00  0.00    -0.054 A 
ATOM     15  C   UNL d   1     -29.750  22.186  22.948  0.00  0.00    -0.056 A 
ATOM     16  C   UNL d   1     -30.617  22.332  20.604  0.00  0.00     0.049 C 
ATOM     17  C   UNL d   1     -28.734  21.954  23.857  0.00  0.00     0.009 A 
ATOM     18  C   UNL d   1     -31.130  22.546  23.437  0.00  0.00     0.049 C 
ATOM     19  C   UNL d   1     -27.467  21.631  23.411  0.00  0.00     0.030 A 
ENDBRANCH   1  12
TORSDOF 3
ENDMDL
