MODEL 1
REMARK VINA RESULT:     -10.1      0.000      0.000
REMARK  8 active torsions:
REMARK  status: ('A' for Active; 'I' for Inactive)
REMARK    1  A    between atoms: C_2  and  C_3 
REMARK    2  A    between atoms: C_3  and  C_4 
REMARK    3  A    between atoms: C_4  and  O_6 
REMARK    4  A    between atoms: O_6  and  C_7 
REMARK    5  A    between atoms: C_9  and  N_10 
REMARK    6  A    between atoms: C_23  and  C_24 
REMARK       I    between atoms: C_24  and  N_26 
REMARK    7  A    between atoms: N_26  and  C_27 
REMARK    8  A    between atoms: C_33  and  C_34 
ROOT
ATOM      1  C   UNL d   1     -26.017  23.294  23.383  0.00  0.00     0.087 A 
ATOM      2  C   UNL d   1     -27.391  23.136  23.419  0.00  0.00     0.073 A 
ATOM      3  C   UNL d   1     -28.014  22.267  22.532  0.00  0.00     0.104 A 
ATOM      4  C   UNL d   1     -27.259  21.551  21.604  0.00  0.00     0.146 A 
ATOM      5  F   UNL d   1     -27.871  20.707  20.745  0.00  0.00    -0.204 F 
ATOM      6  C   UNL d   1     -25.891  21.706  21.557  0.00  0.00     0.064 A 
ATOM      7  C   UNL d   1     -25.256  22.575  22.450  0.00  0.00     0.068 A 
ENDROOT
BRANCH   7   8
ATOM      8  C   UNL d   1     -23.793  22.737  22.407  0.00  0.00     0.259 C 
ATOM      9  O   UNL d   1     -23.074  21.760  22.321  0.00  0.00    -0.267 OA
ATOM     10  N   UNL d   1     -23.250  23.970  22.465  0.00  0.00    -0.322 N 
ATOM     11  H   UNL d   1     -23.818  24.744  22.598  0.00  0.00     0.169 HD
BRANCH  10  12
ATOM     12  C   UNL d   1     -21.867  24.132  22.332  0.00  0.00     0.056 A 
ATOM     13  C   UNL d   1     -21.320  24.456  21.098  0.00  0.00     0.075 A 
ATOM     14  C   UNL d   1     -19.954  24.615  20.969  0.00  0.00     0.018 A 
ATOM     15  C   UNL d   1     -19.131  24.451  22.068  0.00  0.00     0.002 A 
ATOM     16  C   UNL d   1     -19.673  24.127  23.299  0.00  0.00     0.009 A 
ATOM     17  C   UNL d   1     -21.037  23.962  23.433  0.00  0.00    -0.034 A 
ATOM     18  C   UNL d   1     -21.625  23.602  24.772  0.00  0.00     0.050 C 
BRANCH  13  19
ATOM     19  C   UNL d   1     -22.216  24.635  19.899  0.00  0.00     0.419 C 
ATOM     20  F   UNL d   1     -22.580  23.381  19.397  0.00  0.00    -0.166 F 
ATOM     21  F   UNL d   1     -23.365  25.339  20.276  0.00  0.00    -0.166 F 
ATOM     22  F   UNL d   1     -21.533  25.352  18.910  0.00  0.00    -0.166 F 
ENDBRANCH  13  19
ENDBRANCH  10  12
ENDBRANCH   7   8
BRANCH   1  23
ATOM     23  O   UNL d   1     -25.406  24.142  24.249  0.00  0.00    -0.345 OA
BRANCH  23  24
ATOM     24  C   UNL d   1     -25.743  25.527  24.145  0.00  0.00     0.124 C 
ATOM     25  C   UNL d   1     -26.213  26.042  25.508  0.00  0.00     0.040 C 
BRANCH  24  26
ATOM     26  C   UNL d   1     -24.512  26.319  23.698  0.00  0.00     0.032 C 
BRANCH  26  27
ATOM     27  C   UNL d   1     -23.561  26.493  24.883  0.00  0.00    -0.002 C 
ATOM     28  C   UNL d   1     -22.299  27.223  24.420  0.00  0.00     0.005 C 
ENDBRANCH  26  27
ENDBRANCH  24  26
ENDBRANCH  23  24
ENDBRANCH   1  23
BRANCH   3  29
ATOM     29  N   UNL d   1     -29.401  22.110  22.571  0.00  0.00    -0.178 N 
ATOM     30  C   UNL d   1     -30.139  21.779  23.654  0.00  0.00     0.351 A 
ATOM     31  N   UNL d   1     -31.426  21.759  23.271  0.00  0.00    -0.284 N 
ATOM     32  O   UNL d   1     -29.714  21.543  24.771  0.00  0.00    -0.244 OA
ATOM     33  C   UNL d   1     -31.482  22.047  21.923  0.00  0.00     0.131 A 
ATOM     34  C   UNL d   1     -32.603  21.509  24.111  0.00  0.00     0.135 C 
ATOM     35  N   UNL d   1     -30.286  22.271  21.495  0.00  0.00    -0.149 NA
ATOM     36  C   UNL d   1     -32.764  22.067  21.123  0.00  0.00     0.081 C 
ATOM     37  C   UNL d   1     -33.936  22.189  22.106  0.00  0.00     0.009 C 
ATOM     38  C   UNL d   1     -33.780  21.131  23.204  0.00  0.00     0.021 C 
ENDBRANCH   3  29
TORSDOF 8
ENDMDL
