MODEL 1
REMARK VINA RESULT:      -8.8      0.000      0.000
REMARK  6 active torsions:
REMARK  status: ('A' for Active; 'I' for Inactive)
REMARK    1  A    between atoms: C_8  and  N_9 
REMARK       I    between atoms: N_9  and  C_10 
REMARK    2  A    between atoms: C_10  and  C_12 
REMARK    3  A    between atoms: C_16  and  N_17 
REMARK    4  A    between atoms: C_28  and  O_29 
REMARK    5  A    between atoms: O_29  and  C_30 
REMARK    6  A    between atoms: C_30  and  C_32 
ROOT
ATOM      1  C   UNL d   1     -19.543  25.248  23.044  0.00  0.00     0.068 A 
ATOM      2  C   UNL d   1     -20.038  24.788  21.818  0.00  0.00     0.064 A 
ATOM      3  C   UNL d   1     -21.310  24.267  21.742  0.00  0.00     0.146 A 
ATOM      4  F   UNL d   1     -21.784  23.819  20.559  0.00  0.00    -0.204 F 
ATOM      5  C   UNL d   1     -22.112  24.207  22.881  0.00  0.00     0.104 A 
ATOM      6  C   UNL d   1     -21.631  24.667  24.100  0.00  0.00     0.073 A 
ATOM      7  C   UNL d   1     -20.351  25.187  24.188  0.00  0.00     0.087 A 
ENDROOT
BRANCH   1   8
ATOM      8  C   UNL d   1     -18.181  25.800  23.130  0.00  0.00     0.259 C 
ATOM      9  N   UNL d   1     -17.955  26.933  23.824  0.00  0.00    -0.322 N 
ATOM     10  H   UNL d   1     -18.672  27.341  24.332  0.00  0.00     0.169 HD
ATOM     11  O   UNL d   1     -17.259  25.231  22.576  0.00  0.00    -0.267 OA
BRANCH   9  12
ATOM     12  C   UNL d   1     -16.686  27.521  23.809  0.00  0.00     0.043 A 
ATOM     13  C   UNL d   1     -15.809  27.310  24.864  0.00  0.00     0.003 A 
ATOM     14  C   UNL d   1     -16.222  26.448  26.028  0.00  0.00     0.054 C 
ATOM     15  C   UNL d   1     -14.555  27.895  24.846  0.00  0.00     0.124 A 
ATOM     16  F   UNL d   1     -13.700  27.692  25.873  0.00  0.00    -0.205 F 
ATOM     17  C   UNL d   1     -14.175  28.687  23.776  0.00  0.00     0.043 A 
ATOM     18  C   UNL d   1     -15.048  28.897  22.724  0.00  0.00     0.005 A 
ATOM     19  C   UNL d   1     -16.301  28.316  22.737  0.00  0.00     0.030 A 
ENDBRANCH   9  12
ENDBRANCH   1   8
BRANCH   7  20
ATOM     20  O   UNL d   1     -19.880  25.636  25.380  0.00  0.00    -0.345 OA
BRANCH  20  21
ATOM     21  C   UNL d   1     -20.812  26.295  26.239  0.00  0.00     0.129 C 
ATOM     22  C   UNL d   1     -20.621  25.798  27.674  0.00  0.00     0.040 C 
BRANCH  21  23
ATOM     23  C   UNL d   1     -20.574  27.805  26.187  0.00  0.00     0.015 C 
ATOM     24  C   UNL d   1     -21.718  28.526  26.904  0.00  0.00     0.007 C 
ATOM     25  C   UNL d   1     -21.479  30.037  26.852  0.00  0.00     0.000 C 
ATOM     26  C   UNL d   1     -20.154  30.368  27.543  0.00  0.00     0.000 C 
ATOM     27  C   UNL d   1     -19.012  29.646  26.826  0.00  0.00     0.000 C 
ATOM     28  C   UNL d   1     -19.249  28.136  26.877  0.00  0.00     0.007 C 
ENDBRANCH  21  23
ENDBRANCH  20  21
ENDBRANCH   7  20
BRANCH   5  29
ATOM     29  N   UNL d   1     -23.404  23.682  22.796  0.00  0.00    -0.178 N 
ATOM     30  C   UNL d   1     -24.521  24.212  23.341  0.00  0.00     0.351 A 
ATOM     31  N   UNL d   1     -25.549  23.417  23.003  0.00  0.00    -0.284 N 
ATOM     32  O   UNL d   1     -24.583  25.226  24.014  0.00  0.00    -0.244 OA
ATOM     33  C   UNL d   1     -25.054  22.358  22.268  0.00  0.00     0.131 A 
ATOM     34  C   UNL d   1     -26.969  23.612  23.313  0.00  0.00     0.135 C 
ATOM     35  N   UNL d   1     -23.782  22.511  22.124  0.00  0.00    -0.149 NA
ATOM     36  C   UNL d   1     -25.909  21.224  21.752  0.00  0.00     0.081 C 
ATOM     37  C   UNL d   1     -27.373  21.687  21.769  0.00  0.00     0.009 C 
ATOM     38  C   UNL d   1     -27.696  22.273  23.146  0.00  0.00     0.021 C 
ENDBRANCH   5  29
TORSDOF 6
ENDMDL
