MODEL 1
REMARK VINA RESULT:     -10.7      0.000      0.000
REMARK  6 active torsions:
REMARK  status: ('A' for Active; 'I' for Inactive)
REMARK    1  A    between atoms: C_5  and  C_6 
REMARK    2  A    between atoms: N_7  and  N_8 
REMARK    3  A    between atoms: N_8  and  C_10 
REMARK    4  A    between atoms: C_12  and  C_13 
REMARK    5  A    between atoms: C_22  and  C_23 
REMARK    6  A    between atoms: C_23  and  O_25 
ROOT
ATOM      1  N   UNL d   1     -27.042  22.954  23.703  0.00  0.00    -0.251 N 
ATOM      2  C   UNL d   1     -27.022  23.625  25.005  0.00  0.00     0.182 C 
ENDROOT
BRANCH   1   3
ATOM      3  N   UNL d   1     -28.248  22.465  23.185  0.00  0.00    -0.182 NA
ATOM      4  C   UNL d   1     -29.320  22.465  23.923  0.00  0.00     0.151 C 
BRANCH   4   5
ATOM      5  C   UNL d   1     -30.608  22.055  23.346  0.00  0.00    -0.000 A 
ATOM      6  C   UNL d   1     -30.912  22.357  22.017  0.00  0.00     0.014 A 
ATOM      7  C   UNL d   1     -32.120  21.965  21.481  0.00  0.00     0.007 A 
ATOM      8  C   UNL d   1     -33.046  21.281  22.255  0.00  0.00    -0.061 A 
ATOM      9  C   UNL d   1     -34.363  20.866  21.653  0.00  0.00     0.048 C 
ATOM     10  C   UNL d   1     -32.769  20.978  23.572  0.00  0.00     0.026 A 
ATOM     11  C   UNL d   1     -31.550  21.360  24.134  0.00  0.00     0.050 A 
BRANCH  11  12
ATOM     12  C   UNL d   1     -31.250  21.039  25.540  0.00  0.00     0.177 C 
ATOM     13  O   UNL d   1     -31.537  21.828  26.418  0.00  0.00    -0.646 OA
BRANCH  12  14
ATOM     14  O   UNL d   1     -30.655  19.870  25.853  0.00  0.00    -0.773 OA
ATOM     15  H   UNL d   1     -29.691  19.876  25.935  0.00  0.00     0.167 HD
ENDBRANCH  12  14
ENDBRANCH  11  12
ENDBRANCH   4   5
ENDBRANCH   1   3
BRANCH   1  16
ATOM     16  C   UNL d   1     -25.868  22.803  22.984  0.00  0.00     0.189 A 
ATOM     17  S   UNL d   1     -25.651  21.733  21.601  0.00  0.00    -0.060 SA
ATOM     18  C   UNL d   1     -23.975  22.256  21.458  0.00  0.00     0.086 A 
ATOM     19  C   UNL d   1     -23.730  23.153  22.430  0.00  0.00     0.078 A 
ATOM     20  N   UNL d   1     -24.755  23.423  23.226  0.00  0.00    -0.222 NA
BRANCH  19  21
ATOM     21  C   UNL d   1     -22.403  23.795  22.601  0.00  0.00     0.015 A 
ATOM     22  C   UNL d   1     -21.906  24.648  21.615  0.00  0.00     0.046 A 
ATOM     23  C   UNL d   1     -20.671  25.242  21.781  0.00  0.00     0.025 A 
ATOM     24 CL   UNL d   1     -22.838  24.961  20.185  0.00  0.00    -0.083 Cl
ATOM     25  C   UNL d   1     -19.927  24.993  22.921  0.00  0.00     0.002 A 
ATOM     26  C   UNL d   1     -20.416  24.148  23.901  0.00  0.00     0.001 A 
ATOM     27  C   UNL d   1     -21.652  23.553  23.750  0.00  0.00     0.015 A 
ENDBRANCH  19  21
ENDBRANCH   1  16
TORSDOF 6
ENDMDL
