MODEL 1
REMARK VINA RESULT:     -10.8      0.000      0.000
REMARK  6 active torsions:
REMARK  status: ('A' for Active; 'I' for Inactive)
REMARK    1  A    between atoms: C_8  and  N_9 
REMARK       I    between atoms: N_9  and  C_10 
REMARK    2  A    between atoms: C_10  and  C_12 
REMARK    3  A    between atoms: C_16  and  N_17 
REMARK    4  A    between atoms: C_28  and  O_29 
REMARK    5  A    between atoms: O_29  and  C_30 
REMARK    6  A    between atoms: C_30  and  C_32 
ROOT
ATOM      1  C   UNL d   1     -24.276  24.584  23.636  0.00  0.00     0.068 A 
ATOM      2  C   UNL d   1     -25.196  25.120  24.543  0.00  0.00     0.064 A 
ATOM      3  C   UNL d   1     -26.436  24.541  24.686  0.00  0.00     0.146 A 
ATOM      4  F   UNL d   1     -27.324  25.058  25.563  0.00  0.00    -0.204 F 
ATOM      5  C   UNL d   1     -26.779  23.419  23.930  0.00  0.00     0.104 A 
ATOM      6  C   UNL d   1     -25.870  22.879  23.032  0.00  0.00     0.073 A 
ATOM      7  C   UNL d   1     -24.623  23.457  22.876  0.00  0.00     0.087 A 
ENDROOT
BRANCH   1   8
ATOM      8  C   UNL d   1     -22.948  25.201  23.478  0.00  0.00     0.259 C 
ATOM      9  N   UNL d   1     -21.907  24.756  24.211  0.00  0.00    -0.322 N 
ATOM     10  H   UNL d   1     -22.051  24.088  24.900  0.00  0.00     0.169 HD
ATOM     11  O   UNL d   1     -22.789  26.110  22.686  0.00  0.00    -0.267 OA
BRANCH   9  12
ATOM     12  C   UNL d   1     -20.624  25.259  23.980  0.00  0.00     0.043 A 
ATOM     13  C   UNL d   1     -20.122  26.281  24.775  0.00  0.00    -0.035 A 
ATOM     14  C   UNL d   1     -20.963  26.850  25.889  0.00  0.00     0.050 C 
ATOM     15  C   UNL d   1     -18.853  26.777  24.544  0.00  0.00     0.012 A 
ATOM     16  C   UNL d   1     -18.082  26.256  23.522  0.00  0.00     0.043 A 
ATOM     17  C   UNL d   1     -18.577  25.236  22.727  0.00  0.00     0.118 A 
ATOM     18  F   UNL d   1     -17.820  24.729  21.728  0.00  0.00    -0.206 F 
ATOM     19  C   UNL d   1     -19.845  24.733  22.956  0.00  0.00     0.072 A 
ENDBRANCH   9  12
ENDBRANCH   1   8
BRANCH   7  20
ATOM     20  O   UNL d   1     -23.735  22.932  21.993  0.00  0.00    -0.336 OA
BRANCH  20  21
ATOM     21  C   UNL d   1     -23.935  23.238  20.612  0.00  0.00     0.232 C 
ATOM     22  C   UNL d   1     -22.602  23.647  19.981  0.00  0.00     0.049 C 
BRANCH  21  23
ATOM     23  C   UNL d   1     -24.483  22.004  19.891  0.00  0.00     0.413 C 
ATOM     24  F   UNL d   1     -24.124  20.852  20.599  0.00  0.00    -0.168 F 
ATOM     25  F   UNL d   1     -25.878  22.088  19.815  0.00  0.00    -0.168 F 
ATOM     26  F   UNL d   1     -23.948  21.943  18.599  0.00  0.00    -0.168 F 
ENDBRANCH  21  23
ENDBRANCH  20  21
ENDBRANCH   7  20
BRANCH   5  27
ATOM     27  N   UNL d   1     -28.040  22.836  24.081  0.00  0.00    -0.178 N 
ATOM     28  C   UNL d   1     -28.442  22.058  25.109  0.00  0.00     0.351 A 
ATOM     29  N   UNL d   1     -29.726  21.730  24.885  0.00  0.00    -0.284 N 
ATOM     30  O   UNL d   1     -27.768  21.716  26.063  0.00  0.00    -0.244 OA
ATOM     31  C   UNL d   1     -30.109  22.280  23.678  0.00  0.00     0.131 A 
ATOM     32  C   UNL d   1     -30.611  20.945  25.751  0.00  0.00     0.135 C 
ATOM     33  N   UNL d   1     -29.119  22.948  23.192  0.00  0.00    -0.149 NA
ATOM     34  C   UNL d   1     -31.480  22.094  23.070  0.00  0.00     0.081 C 
ATOM     35  C   UNL d   1     -32.432  21.627  24.179  0.00  0.00     0.009 C 
ATOM     36  C   UNL d   1     -31.796  20.445  24.917  0.00  0.00     0.021 C 
ENDBRANCH   5  27
TORSDOF 6
ENDMDL
