MODEL 1
REMARK VINA RESULT:     -11.5      0.000      0.000
REMARK  4 active torsions:
REMARK  status: ('A' for Active; 'I' for Inactive)
REMARK    1  A    between atoms: C_6  and  C_7 
REMARK    2  A    between atoms: C_10  and  C_11 
REMARK    3  A    between atoms: C_20  and  C_21 
REMARK    4  A    between atoms: C_21  and  O_23 
ROOT
ATOM      1  C   UNL d   1     -34.017  21.819  21.480  0.00  0.00     0.204 C 
ATOM      2  N   UNL d   1     -32.668  21.897  22.047  0.00  0.00    -0.192 N 
ATOM      3  N   UNL d   1     -31.641  22.307  21.387  0.00  0.00    -0.153 NA
ATOM      4  C   UNL d   1     -30.579  22.258  22.178  0.00  0.00     0.111 A 
ATOM      5  C   UNL d   1     -29.214  22.558  22.065  0.00  0.00     0.048 A 
ATOM      6  C   UNL d   1     -28.368  22.376  23.142  0.00  0.00    -0.022 A 
ATOM      7  C   UNL d   1     -28.825  21.892  24.372  0.00  0.00     0.033 A 
ATOM      8  C   UNL d   1     -30.157  21.572  24.568  0.00  0.00     0.071 A 
ATOM      9  C   UNL d   1     -31.094  21.748  23.458  0.00  0.00     0.126 A 
ATOM     10  N   UNL d   1     -32.383  21.563  23.257  0.00  0.00    -0.152 NA
ENDROOT
BRANCH   6  11
ATOM     11  C   UNL d   1     -26.930  22.704  22.987  0.00  0.00    -0.026 A 
ATOM     12  C   UNL d   1     -26.366  23.735  23.737  0.00  0.00     0.013 A 
ATOM     13  C   UNL d   1     -25.029  24.039  23.593  0.00  0.00     0.013 A 
ATOM     14  C   UNL d   1     -24.242  23.314  22.699  0.00  0.00    -0.026 A 
ATOM     15  C   UNL d   1     -24.807  22.282  21.950  0.00  0.00     0.013 A 
ATOM     16  C   UNL d   1     -26.141  21.975  22.097  0.00  0.00     0.013 A 
BRANCH  14  17
ATOM     17  C   UNL d   1     -22.803  23.641  22.544  0.00  0.00    -0.026 A 
ATOM     18  C   UNL d   1     -21.948  23.567  23.642  0.00  0.00     0.012 A 
ATOM     19  C   UNL d   1     -20.611  23.873  23.493  0.00  0.00     0.001 A 
ATOM     20  C   UNL d   1     -20.118  24.251  22.257  0.00  0.00     0.000 A 
ATOM     21  C   UNL d   1     -20.962  24.326  21.164  0.00  0.00     0.001 A 
ATOM     22  C   UNL d   1     -22.300  24.018  21.300  0.00  0.00     0.012 A 
ENDBRANCH  14  17
ENDBRANCH   6  11
BRANCH   8  23
ATOM     23  C   UNL d   1     -30.625  21.064  25.868  0.00  0.00     0.178 C 
ATOM     24  O   UNL d   1     -31.494  21.657  26.476  0.00  0.00    -0.646 OA
BRANCH  23  25
ATOM     25  O   UNL d   1     -30.088  19.939  26.384  0.00  0.00    -0.773 OA
ATOM     26  H   UNL d   1     -30.689  19.197  26.539  0.00  0.00     0.167 HD
ENDBRANCH  23  25
ENDBRANCH   8  23
TORSDOF 4
ENDMDL
