MODEL 1
REMARK VINA RESULT:      -8.4      0.000      0.000
REMARK  7 active torsions:
REMARK  status: ('A' for Active; 'I' for Inactive)
REMARK    1  A    between atoms: C_4  and  C_5 
REMARK    2  A    between atoms: C_11  and  N_12 
REMARK       I    between atoms: N_12  and  C_13 
REMARK    3  A    between atoms: C_13  and  C_15 
REMARK    4  A    between atoms: C_19  and  N_20 
REMARK    5  A    between atoms: C_31  and  O_32 
REMARK    6  A    between atoms: O_32  and  C_33 
REMARK    7  A    between atoms: C_33  and  C_35 
ROOT
ATOM      1  C   UNL d   1     -20.325  26.171  25.544  0.00  0.00     0.068 A 
ATOM      2  C   UNL d   1     -20.704  26.223  26.889  0.00  0.00     0.064 A 
ATOM      3  C   UNL d   1     -19.829  26.716  27.832  0.00  0.00     0.146 A 
ATOM      4  F   UNL d   1     -20.199  26.771  29.130  0.00  0.00    -0.204 F 
ATOM      5  C   UNL d   1     -18.563  27.159  27.449  0.00  0.00     0.104 A 
ATOM      6  C   UNL d   1     -18.176  27.106  26.117  0.00  0.00     0.073 A 
ATOM      7  C   UNL d   1     -19.049  26.613  25.162  0.00  0.00     0.087 A 
ENDROOT
BRANCH   1   8
ATOM      8  C   UNL d   1     -21.260  25.651  24.532  0.00  0.00     0.259 C 
ATOM      9  N   UNL d   1     -21.062  24.432  23.994  0.00  0.00    -0.322 N 
ATOM     10  H   UNL d   1     -20.347  23.867  24.324  0.00  0.00     0.169 HD
ATOM     11  O   UNL d   1     -22.211  26.324  24.182  0.00  0.00    -0.267 OA
BRANCH   9  12
ATOM     12  C   UNL d   1     -21.890  23.982  22.960  0.00  0.00     0.041 A 
ATOM     13  C   UNL d   1     -21.615  24.336  21.645  0.00  0.00    -0.034 A 
ATOM     14  C   UNL d   1     -20.425  25.206  21.331  0.00  0.00     0.050 C 
ATOM     15  C   UNL d   1     -22.431  23.885  20.626  0.00  0.00     0.025 A 
ATOM     16  C   UNL d   1     -23.525  23.091  20.914  0.00  0.00     0.048 A 
ATOM     17  C   UNL d   1     -23.805  22.743  22.222  0.00  0.00     0.018 A 
ATOM     18  C   UNL d   1     -22.990  23.185  23.246  0.00  0.00     0.031 A 
BRANCH  16  19
ATOM     19  C   UNL d   1     -24.416  22.606  19.799  0.00  0.00     0.417 C 
ATOM     20  F   UNL d   1     -24.722  23.672  18.948  0.00  0.00    -0.166 F 
ATOM     21  F   UNL d   1     -23.755  21.608  19.076  0.00  0.00    -0.166 F 
ATOM     22  F   UNL d   1     -25.597  22.086  20.339  0.00  0.00    -0.166 F 
ENDBRANCH  16  19
ENDBRANCH   9  12
ENDBRANCH   1   8
BRANCH   7  23
ATOM     23  O   UNL d   1     -18.672  26.560  23.859  0.00  0.00    -0.345 OA
BRANCH  23  24
ATOM     24  C   UNL d   1     -17.292  26.305  23.593  0.00  0.00     0.129 C 
ATOM     25  C   UNL d   1     -17.166  25.079  22.687  0.00  0.00     0.040 C 
BRANCH  24  26
ATOM     26  C   UNL d   1     -16.674  27.519  22.896  0.00  0.00     0.015 C 
ATOM     27  C   UNL d   1     -15.396  27.094  22.169  0.00  0.00     0.007 C 
ATOM     28  C   UNL d   1     -14.779  28.308  21.472  0.00  0.00     0.000 C 
ATOM     29  C   UNL d   1     -14.441  29.377  22.513  0.00  0.00     0.000 C 
ATOM     30  C   UNL d   1     -15.719  29.802  23.239  0.00  0.00     0.000 C 
ATOM     31  C   UNL d   1     -16.336  28.588  23.937  0.00  0.00     0.007 C 
ENDBRANCH  24  26
ENDBRANCH  23  24
ENDBRANCH   7  23
BRANCH   5  32
ATOM     32  N   UNL d   1     -17.681  27.657  28.411  0.00  0.00    -0.178 N 
ATOM     33  C   UNL d   1     -16.815  26.933  29.154  0.00  0.00     0.351 A 
ATOM     34  N   UNL d   1     -16.139  27.793  29.932  0.00  0.00    -0.284 N 
ATOM     35  O   UNL d   1     -16.674  25.723  29.123  0.00  0.00    -0.244 OA
ATOM     36  C   UNL d   1     -16.619  29.064  29.693  0.00  0.00     0.131 A 
ATOM     37  C   UNL d   1     -15.051  27.486  30.868  0.00  0.00     0.135 C 
ATOM     38  N   UNL d   1     -17.526  29.002  28.780  0.00  0.00    -0.149 NA
ATOM     39  C   UNL d   1     -16.133  30.296  30.423  0.00  0.00     0.081 C 
ATOM     40  C   UNL d   1     -14.778  29.964  31.063  0.00  0.00     0.009 C 
ATOM     41  C   UNL d   1     -14.903  28.654  31.848  0.00  0.00     0.021 C 
ENDBRANCH   5  32
TORSDOF 7
ENDMDL
