MODEL 1
REMARK VINA RESULT:      -9.5      0.000      0.000
REMARK  8 active torsions:
REMARK  status: ('A' for Active; 'I' for Inactive)
REMARK    1  A    between atoms: N_4  and  C_5 
REMARK    2  A    between atoms: C_7  and  O_8 
REMARK    3  A    between atoms: O_8  and  C_9 
REMARK    4  A    between atoms: C_9  and  C_11 
REMARK    5  A    between atoms: C_15  and  C_16 
REMARK       I    between atoms: C_16  and  N_18 
REMARK    6  A    between atoms: N_18  and  C_19 
REMARK    7  A    between atoms: C_31  and  C_32 
REMARK    8  A    between atoms: C_32  and  O_34 
ROOT
ATOM      1  C   UNL d   1     -26.797  23.322  23.606  0.00  0.00     0.099 A 
ATOM      2  C   UNL d   1     -25.931  22.839  22.635  0.00  0.00     0.072 A 
ATOM      3  C   UNL d   1     -24.648  23.349  22.534  0.00  0.00     0.087 A 
ATOM      4  C   UNL d   1     -24.226  24.354  23.417  0.00  0.00     0.068 A 
ATOM      5  C   UNL d   1     -25.102  24.830  24.397  0.00  0.00     0.064 A 
ATOM      6  C   UNL d   1     -26.379  24.321  24.484  0.00  0.00     0.146 A 
ATOM      7  F   UNL d   1     -27.227  24.785  25.427  0.00  0.00    -0.204 F 
ENDROOT
BRANCH   4   8
ATOM      8  C   UNL d   1     -22.861  24.901  23.317  0.00  0.00     0.259 C 
ATOM      9  O   UNL d   1     -22.670  25.960  22.750  0.00  0.00    -0.267 OA
ATOM     10  N   UNL d   1     -21.824  24.226  23.852  0.00  0.00    -0.318 N 
ATOM     11  H   UNL d   1     -21.962  23.344  24.228  0.00  0.00     0.169 HD
BRANCH  10  12
ATOM     12  C   UNL d   1     -20.540  24.804  23.865  0.00  0.00     0.101 A 
ATOM     13  C   UNL d   1     -20.041  25.624  24.827  0.00  0.00     0.148 A 
ATOM     14  N   UNL d   1     -18.776  25.959  24.463  0.00  0.00    -0.265 N 
ATOM     15 CL   UNL d   1     -20.869  26.148  26.260  0.00  0.00    -0.060 Cl
ATOM     16  N   UNL d   1     -18.496  25.327  23.246  0.00  0.00    -0.176 NA
ATOM     17  H   UNL d   1     -18.174  26.536  24.959  0.00  0.00     0.190 HD
ATOM     18  C   UNL d   1     -19.549  24.636  22.888  0.00  0.00     0.080 A 
ATOM     19  C   UNL d   1     -19.672  23.798  21.641  0.00  0.00     0.075 C 
ENDBRANCH  10  12
ENDBRANCH   4   8
BRANCH   3  20
ATOM     20  O   UNL d   1     -23.801  22.878  21.584  0.00  0.00    -0.336 OA
BRANCH  20  21
ATOM     21  C   UNL d   1     -23.932  23.423  20.270  0.00  0.00     0.232 C 
ATOM     22  C   UNL d   1     -22.564  23.888  19.771  0.00  0.00     0.049 C 
BRANCH  21  23
ATOM     23  C   UNL d   1     -24.483  22.352  19.326  0.00  0.00     0.413 C 
ATOM     24  F   UNL d   1     -24.572  22.874  18.030  0.00  0.00    -0.168 F 
ATOM     25  F   UNL d   1     -23.627  21.246  19.325  0.00  0.00    -0.168 F 
ATOM     26  F   UNL d   1     -25.754  21.958  19.758  0.00  0.00    -0.168 F 
ENDBRANCH  21  23
ENDBRANCH  20  21
ENDBRANCH   3  20
BRANCH   1  27
ATOM     27  N   UNL d   1     -28.092  22.804  23.704  0.00  0.00    -0.241 N 
ATOM     28  C   UNL d   1     -29.058  22.880  22.752  0.00  0.00     0.128 A 
ATOM     29  C   UNL d   1     -30.159  22.260  23.236  0.00  0.00    -0.015 A 
ATOM     30  C   UNL d   1     -31.474  22.101  22.517  0.00  0.00     0.052 C 
ATOM     31  C   UNL d   1     -29.861  21.790  24.519  0.00  0.00     0.090 A 
ATOM     32  N   UNL d   1     -28.624  22.109  24.799  0.00  0.00    -0.169 NA
BRANCH  31  33
ATOM     33  C   UNL d   1     -30.803  21.037  25.423  0.00  0.00     0.168 C 
ATOM     34  C   UNL d   1     -29.996  20.214  26.429  0.00  0.00     0.046 C 
BRANCH  33  35
ATOM     35  O   UNL d   1     -31.633  21.965  26.125  0.00  0.00    -0.390 OA
ATOM     36  H   UNL d   1     -32.579  21.831  25.984  0.00  0.00     0.210 HD
ENDBRANCH  33  35
ENDBRANCH  31  33
ENDBRANCH   1  27
TORSDOF 8
ENDMDL
