MODEL 1
REMARK VINA RESULT:     -10.1      0.000      0.000
REMARK  7 active torsions:
REMARK  status: ('A' for Active; 'I' for Inactive)
REMARK    1  A    between atoms: C_2  and  C_3 
REMARK    2  A    between atoms: C_4  and  C_5 
REMARK    3  A    between atoms: C_15  and  C_16 
REMARK    4  A    between atoms: C_16  and  C_17 
REMARK    5  A    between atoms: C_18  and  O_19 
REMARK    6  A    between atoms: C_23  and  C_24 
REMARK    7  A    between atoms: C_26  and  O_27 
ROOT
ATOM      1  C   UNL d   1     -27.106  23.929  25.712  0.00  0.00     0.048 C 
ATOM      2  C   UNL d   1     -27.141  22.987  24.536  0.00  0.00    -0.066 C 
ATOM      3  C   UNL d   1     -28.044  22.015  24.490  0.00  0.00    -0.015 C 
ENDROOT
BRANCH   3   4
ATOM      4  C   UNL d   1     -29.117  21.934  25.546  0.00  0.00     0.072 C 
BRANCH   4   5
ATOM      5  C   UNL d   1     -30.419  21.523  24.907  0.00  0.00     0.013 A 
ATOM      6  C   UNL d   1     -30.802  22.073  23.697  0.00  0.00     0.088 A 
ATOM      7  C   UNL d   1     -32.017  21.679  23.107  0.00  0.00     0.041 A 
ATOM      8  C   UNL d   1     -32.828  20.737  23.753  0.00  0.00    -0.043 A 
ATOM      9  C   UNL d   1     -32.440  20.205  24.949  0.00  0.00     0.044 A 
ATOM     10  C   UNL d   1     -34.130  20.308  23.127  0.00  0.00     0.049 C 
ATOM     11  C   UNL d   1     -31.239  20.595  25.536  0.00  0.00     0.075 A 
BRANCH   6  12
ATOM     12  O   UNL d   1     -30.008  22.984  23.081  0.00  0.00    -0.359 OA
ATOM     13  H   UNL d   1     -30.432  23.841  22.935  0.00  0.00     0.217 HD
ENDBRANCH   6  12
BRANCH   7  14
ATOM     14  C   UNL d   1     -32.430  22.249  21.823  0.00  0.00     0.273 C 
ATOM     15  O   UNL d   1     -31.756  22.065  20.832  0.00  0.00    -0.301 OA
ENDBRANCH   7  14
BRANCH  11  16
ATOM     16  O   UNL d   1     -30.865  20.060  26.725  0.00  0.00    -0.360 OA
ATOM     17  H   UNL d   1     -30.640  20.717  27.398  0.00  0.00     0.217 HD
ENDBRANCH  11  16
ENDBRANCH   4   5
ENDBRANCH   3   4
BRANCH   2  18
ATOM     18  C   UNL d   1     -26.172  23.145  23.439  0.00  0.00     0.003 C 
ATOM     19  C   UNL d   1     -24.870  23.167  23.700  0.00  0.00    -0.016 C 
BRANCH  19  20
ATOM     20  C   UNL d   1     -23.878  23.328  22.577  0.00  0.00    -0.013 C 
ATOM     21  C   UNL d   1     -23.561  24.815  22.385  0.00  0.00     0.063 C 
ATOM     22  C   UNL d   1     -22.671  24.964  21.171  0.00  0.00     0.131 C 
ATOM     23  C   UNL d   1     -22.836  25.350  23.623  0.00  0.00     0.019 C 
ATOM     24  C   UNL d   1     -23.107  24.311  19.878  0.00  0.00     0.079 C 
ATOM     25  O   UNL d   1     -21.638  25.587  21.234  0.00  0.00    -0.298 OA
ATOM     26  C   UNL d   1     -23.441  22.843  20.161  0.00  0.00     0.013 C 
ATOM     27  C   UNL d   1     -24.474  22.765  21.286  0.00  0.00    -0.006 C 
ATOM     28  C   UNL d   1     -24.876  21.305  21.506  0.00  0.00     0.011 C 
ATOM     29  C   UNL d   1     -22.593  22.571  22.919  0.00  0.00     0.021 C 
ENDBRANCH  19  20
ENDBRANCH   2  18
TORSDOF 7
ENDMDL
