MODEL 1
REMARK VINA RESULT:      -9.8      0.000      0.000
REMARK  7 active torsions:
REMARK  status: ('A' for Active; 'I' for Inactive)
REMARK    1  A    between atoms: C_7  and  N_8 
REMARK       I    between atoms: N_8  and  C_9 
REMARK    2  A    between atoms: C_9  and  C_11 
REMARK    3  A    between atoms: C_15  and  N_16 
REMARK    4  A    between atoms: N_20  and  C_21 
REMARK    5  A    between atoms: C_27  and  O_28 
REMARK    6  A    between atoms: O_28  and  C_29 
REMARK    7  A    between atoms: C_29  and  C_31 
ROOT
ATOM      1  C   UNL d   1     -24.327  24.361  23.444  0.00  0.00     0.068 A 
ATOM      2  C   UNL d   1     -25.225  24.834  24.408  0.00  0.00     0.064 A 
ATOM      3  C   UNL d   1     -26.471  24.258  24.528  0.00  0.00     0.146 A 
ATOM      4  F   UNL d   1     -27.339  24.719  25.454  0.00  0.00    -0.204 F 
ATOM      5  C   UNL d   1     -26.835  23.198  23.699  0.00  0.00     0.104 A 
ATOM      6  C   UNL d   1     -25.949  22.718  22.745  0.00  0.00     0.073 A 
ATOM      7  C   UNL d   1     -24.697  23.294  22.612  0.00  0.00     0.087 A 
ENDROOT
BRANCH   1   8
ATOM      8  C   UNL d   1     -22.997  24.977  23.309  0.00  0.00     0.259 C 
ATOM      9  N   UNL d   1     -21.922  24.392  23.875  0.00  0.00    -0.322 N 
ATOM     10  H   UNL d   1     -22.036  23.614  24.442  0.00  0.00     0.169 HD
ATOM     11  O   UNL d   1     -22.867  26.014  22.687  0.00  0.00    -0.267 OA
BRANCH   9  12
ATOM     12  C   UNL d   1     -20.643  24.913  23.651  0.00  0.00     0.041 A 
ATOM     13  C   UNL d   1     -20.092  25.817  24.549  0.00  0.00    -0.035 A 
ATOM     14  C   UNL d   1     -20.872  26.239  25.768  0.00  0.00     0.050 C 
ATOM     15  C   UNL d   1     -18.829  26.329  24.325  0.00  0.00     0.009 A 
ATOM     16  C   UNL d   1     -18.114  25.942  23.208  0.00  0.00     0.001 A 
ATOM     17  C   UNL d   1     -18.660  25.042  22.310  0.00  0.00     0.002 A 
ATOM     18  C   UNL d   1     -19.920  24.521  22.532  0.00  0.00     0.030 A 
ENDBRANCH   9  12
ENDBRANCH   1   8
BRANCH   7  19
ATOM     19  O   UNL d   1     -23.829  22.827  21.678  0.00  0.00    -0.336 OA
BRANCH  19  20
ATOM     20  C   UNL d   1     -23.916  23.394  20.370  0.00  0.00     0.232 C 
ATOM     21  C   UNL d   1     -22.523  23.828  19.908  0.00  0.00     0.049 C 
BRANCH  20  22
ATOM     22  C   UNL d   1     -24.473  22.353  19.398  0.00  0.00     0.413 C 
ATOM     23  F   UNL d   1     -25.758  21.975  19.806  0.00  0.00    -0.168 F 
ATOM     24  F   UNL d   1     -24.534  22.898  18.112  0.00  0.00    -0.168 F 
ATOM     25  F   UNL d   1     -23.639  21.229  19.390  0.00  0.00    -0.168 F 
ENDBRANCH  20  22
ENDBRANCH  19  20
ENDBRANCH   7  19
BRANCH   5  26
ATOM     26  N   UNL d   1     -28.098  22.615  23.830  0.00  0.00    -0.178 N 
ATOM     27  C   UNL d   1     -29.088  22.637  22.912  0.00  0.00     0.351 A 
ATOM     28  N   UNL d   1     -30.132  21.960  23.430  0.00  0.00    -0.280 N 
ATOM     29  O   UNL d   1     -29.045  23.170  21.818  0.00  0.00    -0.244 OA
ATOM     30  C   UNL d   1     -29.785  21.522  24.684  0.00  0.00     0.127 A 
ATOM     31  N   UNL d   1     -28.574  21.904  24.939  0.00  0.00    -0.149 NA
ATOM     32  C   UNL d   1     -30.668  20.727  25.611  0.00  0.00     0.093 C 
BRANCH  28  33
ATOM     33  C   UNL d   1     -31.420  21.733  22.769  0.00  0.00     0.088 C 
ATOM     34  C   UNL d   1     -32.494  22.594  23.437  0.00  0.00     0.032 C 
ATOM     35  C   UNL d   1     -31.309  22.115  21.291  0.00  0.00     0.032 C 
ENDBRANCH  28  33
ENDBRANCH   5  26
TORSDOF 7
ENDMDL
