MODEL 1
REMARK VINA RESULT:      -9.9      0.000      0.000
REMARK  6 active torsions:
REMARK  status: ('A' for Active; 'I' for Inactive)
REMARK    1  A    between atoms: C_7  and  C_8 
REMARK    2  A    between atoms: C_11  and  C_12 
REMARK    3  A    between atoms: C_17  and  C_18 
REMARK    4  A    between atoms: C_18  and  N_19 
REMARK    5  A    between atoms: C_28  and  C_29 
REMARK    6  A    between atoms: C_29  and  O_31 
ROOT
ATOM      1  C   UNL d   1     -21.891  26.120  24.470  0.00  0.00    -0.026 A 
ATOM      2  C   UNL d   1     -21.504  24.783  24.394  0.00  0.00     0.013 A 
ATOM      3  C   UNL d   1     -22.238  23.895  23.639  0.00  0.00     0.013 A 
ATOM      4  C   UNL d   1     -23.369  24.334  22.950  0.00  0.00    -0.025 A 
ATOM      5  C   UNL d   1     -23.752  25.673  23.021  0.00  0.00     0.013 A 
ATOM      6  C   UNL d   1     -23.021  26.559  23.781  0.00  0.00     0.013 A 
ENDROOT
BRANCH   1   7
ATOM      7  C   UNL d   1     -21.101  27.076  25.284  0.00  0.00    -0.022 A 
ATOM      8  C   UNL d   1     -19.718  26.973  25.317  0.00  0.00     0.048 A 
ATOM      9  C   UNL d   1     -18.966  27.871  26.082  0.00  0.00     0.111 A 
ATOM     10  N   UNL d   1     -17.636  28.010  26.298  0.00  0.00    -0.130 NA
ATOM     11  C   UNL d   1     -19.621  28.875  26.813  0.00  0.00     0.101 A 
ATOM     12  N   UNL d   1     -17.418  28.999  27.091  0.00  0.00    -0.065 NA
ATOM     13  N   UNL d   1     -18.639  29.587  27.451  0.00  0.00    -0.253 N 
ATOM     14  C   UNL d   1     -18.829  30.738  28.338  0.00  0.00     0.182 C 
ATOM     15  C   UNL d   1     -21.023  28.973  26.776  0.00  0.00     0.069 A 
ATOM     16  C   UNL d   1     -21.755  28.076  26.006  0.00  0.00     0.033 A 
BRANCH  15  17
ATOM     17  C   UNL d   1     -21.713  30.025  27.543  0.00  0.00     0.178 C 
ATOM     18  O   UNL d   1     -21.996  31.080  27.010  0.00  0.00    -0.646 OA
BRANCH  17  19
ATOM     19  O   UNL d   1     -22.030  29.818  28.837  0.00  0.00    -0.773 OA
ATOM     20  H   UNL d   1     -22.515  30.522  29.289  0.00  0.00     0.167 HD
ENDBRANCH  17  19
ENDBRANCH  15  17
ENDBRANCH   1   7
BRANCH   4  21
ATOM     21  C   UNL d   1     -24.159  23.378  22.136  0.00  0.00    -0.018 A 
ATOM     22  C   UNL d   1     -25.409  22.950  22.579  0.00  0.00    -0.019 A 
ATOM     23  C   UNL d   1     -26.142  22.064  21.815  0.00  0.00     0.010 A 
ATOM     24  C   UNL d   1     -25.636  21.598  20.616  0.00  0.00     0.001 A 
ATOM     25  C   UNL d   1     -24.394  22.015  20.174  0.00  0.00     0.001 A 
ATOM     26  C   UNL d   1     -23.652  22.900  20.929  0.00  0.00     0.013 A 
BRANCH  22  27
ATOM     27  C   UNL d   1     -25.961  23.458  23.886  0.00  0.00     0.312 C 
BRANCH  27  28
ATOM     28  N   UNL d   1     -27.016  22.550  24.358  0.00  0.00     0.096 N 
ATOM     29  C   UNL d   1     -27.130  22.592  25.823  0.00  0.00     0.299 C 
ATOM     30  C   UNL d   1     -28.195  21.590  26.276  0.00  0.00     0.198 C 
ATOM     31  O   UNL d   1     -29.433  21.893  25.628  0.00  0.00    -0.388 OA
ATOM     32  C   UNL d   1     -29.358  21.860  24.200  0.00  0.00     0.198 C 
ATOM     33  C   UNL d   1     -28.304  22.865  23.726  0.00  0.00     0.299 C 
ENDBRANCH  27  28
ENDBRANCH  22  27
ENDBRANCH   4  21
TORSDOF 6
ENDMDL
