MODEL 1
REMARK VINA RESULT:     -10.5      0.000      0.000
REMARK  4 active torsions:
REMARK  status: ('A' for Active; 'I' for Inactive)
REMARK    1  A    between atoms: N_7  and  C_8 
REMARK    2  A    between atoms: C_11  and  C_12 
REMARK    3  A    between atoms: C_14  and  C_15 
REMARK    4  A    between atoms: C_15  and  O_17 
ROOT
ATOM      1  C   UNL d   1     -27.966  22.450  23.183  0.00  0.00    -0.022 A 
ATOM      2  C   UNL d   1     -28.317  21.992  24.459  0.00  0.00     0.033 A 
ATOM      3  C   UNL d   1     -29.626  21.664  24.769  0.00  0.00     0.071 A 
ATOM      4  C   UNL d   1     -30.649  21.807  23.735  0.00  0.00     0.126 A 
ATOM      5  N   UNL d   1     -31.949  21.606  23.644  0.00  0.00    -0.152 NA
ATOM      6  N   UNL d   1     -32.336  21.909  22.453  0.00  0.00    -0.192 N 
ATOM      7  C   UNL d   1     -33.725  21.806  22.000  0.00  0.00     0.204 C 
ATOM      8  N   UNL d   1     -31.369  22.313  21.703  0.00  0.00    -0.153 NA
ATOM      9  C   UNL d   1     -30.246  22.291  22.406  0.00  0.00     0.111 A 
ATOM     10  C   UNL d   1     -28.897  22.600  22.176  0.00  0.00     0.048 A 
ENDROOT
BRANCH   1  11
ATOM     11  C   UNL d   1     -26.547  22.787  22.906  0.00  0.00    -0.026 A 
ATOM     12  C   UNL d   1     -25.962  23.895  23.514  0.00  0.00     0.014 A 
ATOM     13  C   UNL d   1     -24.643  24.205  23.255  0.00  0.00     0.031 A 
ATOM     14  C   UNL d   1     -23.899  23.414  22.389  0.00  0.00     0.039 A 
ATOM     15  C   UNL d   1     -24.482  22.309  21.781  0.00  0.00     0.031 A 
ATOM     16  C   UNL d   1     -25.798  21.991  22.041  0.00  0.00     0.014 A 
BRANCH  14  17
ATOM     17  N   UNL d   1     -22.560  23.732  22.127  0.00  0.00    -0.320 N 
ATOM     18  C   UNL d   1     -22.068  24.193  20.940  0.00  0.00     0.013 A 
ATOM     19  C   UNL d   1     -22.871  24.447  19.690  0.00  0.00     0.068 C 
ATOM     20  C   UNL d   1     -20.740  24.384  21.080  0.00  0.00     0.027 A 
ATOM     21  C   UNL d   1     -20.397  24.022  22.398  0.00  0.00     0.027 A 
ATOM     22  C   UNL d   1     -21.529  23.626  23.016  0.00  0.00     0.013 A 
ATOM     23  C   UNL d   1     -21.636  23.151  24.442  0.00  0.00     0.068 C 
ENDBRANCH  14  17
ENDBRANCH   1  11
BRANCH   3  24
ATOM     24  C   UNL d   1     -29.980  21.183  26.114  0.00  0.00     0.178 C 
ATOM     25  O   UNL d   1     -29.783  21.890  27.083  0.00  0.00    -0.646 OA
BRANCH  24  26
ATOM     26  O   UNL d   1     -30.524  19.960  26.271  0.00  0.00    -0.773 OA
ATOM     27  H   UNL d   1     -30.470  19.566  27.152  0.00  0.00     0.167 HD
ENDBRANCH  24  26
ENDBRANCH   3  24
TORSDOF 4
ENDMDL
