MODEL 1
REMARK VINA RESULT:     -11.4      0.000      0.000
REMARK  4 active torsions:
REMARK  status: ('A' for Active; 'I' for Inactive)
REMARK    1  A    between atoms: C_4  and  C_5 
REMARK    2  A    between atoms: C_5  and  O_7 
REMARK    3  A    between atoms: C_10  and  C_11 
REMARK    4  A    between atoms: C_14  and  C_15 
ROOT
ATOM      1  C   UNL d   1     -34.273  20.064  25.608  0.00  0.00     0.048 C 
ATOM      2  C   UNL d   1     -33.181  20.626  24.733  0.00  0.00    -0.059 A 
ATOM      3  C   UNL d   1     -33.481  21.044  23.450  0.00  0.00     0.027 A 
ATOM      4  C   UNL d   1     -32.483  21.570  22.631  0.00  0.00     0.069 A 
ATOM      5  C   UNL d   1     -31.161  21.662  23.120  0.00  0.00     0.102 A 
ATOM      6  N   UNL d   1     -30.009  22.105  22.587  0.00  0.00    -0.227 NA
ATOM      7  C   UNL d   1     -29.036  21.977  23.459  0.00  0.00     0.139 A 
ATOM      8  N   UNL d   1     -29.525  21.435  24.616  0.00  0.00    -0.338 N 
ATOM      9  H   UNL d   1     -29.018  21.236  25.420  0.00  0.00     0.167 HD
ATOM     10  C   UNL d   1     -30.878  21.224  24.426  0.00  0.00     0.064 A 
ATOM     11  C   UNL d   1     -31.891  20.710  25.220  0.00  0.00     0.038 A 
ENDROOT
BRANCH   7  12
ATOM     12  C   UNL d   1     -27.629  22.359  23.227  0.00  0.00     0.010 A 
ATOM     13  C   UNL d   1     -27.023  23.321  24.038  0.00  0.00     0.016 A 
ATOM     14  C   UNL d   1     -25.711  23.677  23.822  0.00  0.00     0.013 A 
ATOM     15  C   UNL d   1     -24.986  23.077  22.792  0.00  0.00    -0.026 A 
ATOM     16  C   UNL d   1     -25.590  22.116  21.981  0.00  0.00     0.013 A 
ATOM     17  C   UNL d   1     -26.900  21.755  22.199  0.00  0.00     0.016 A 
BRANCH  15  18
ATOM     18  C   UNL d   1     -23.573  23.461  22.558  0.00  0.00    -0.026 A 
ATOM     19  C   UNL d   1     -23.167  23.907  21.302  0.00  0.00     0.012 A 
ATOM     20  C   UNL d   1     -21.851  24.263  21.092  0.00  0.00     0.001 A 
ATOM     21  C   UNL d   1     -20.934  24.177  22.124  0.00  0.00     0.000 A 
ATOM     22  C   UNL d   1     -21.331  23.734  23.373  0.00  0.00     0.001 A 
ATOM     23  C   UNL d   1     -22.646  23.381  23.597  0.00  0.00     0.012 A 
ENDBRANCH  15  18
ENDBRANCH   7  12
BRANCH   4  24
ATOM     24  C   UNL d   1     -32.804  22.021  21.267  0.00  0.00     0.178 C 
ATOM     25  O   UNL d   1     -33.954  22.278  20.967  0.00  0.00    -0.646 OA
BRANCH  24  26
ATOM     26  O   UNL d   1     -31.824  22.147  20.351  0.00  0.00    -0.773 OA
ATOM     27  H   UNL d   1     -30.928  22.291  20.684  0.00  0.00     0.167 HD
ENDBRANCH  24  26
ENDBRANCH   4  24
TORSDOF 4
ENDMDL
