MODEL 1
REMARK VINA RESULT:     -10.1      0.000      0.000
REMARK  4 active torsions:
REMARK  status: ('A' for Active; 'I' for Inactive)
REMARK    1  A    between atoms: C_2  and  O_3 
REMARK    2  A    between atoms: C_4  and  C_7 
REMARK       I    between atoms: C_7  and  N_9 
REMARK    3  A    between atoms: N_9  and  C_10 
REMARK    4  A    between atoms: C_13  and  C_14 
ROOT
ATOM      1  C   UNL d   1     -33.586  21.533  23.178  0.00  0.00     0.077 C 
ATOM      2  C   UNL d   1     -32.203  21.883  22.694  0.00  0.00     0.065 C 
ATOM      3  C   UNL d   1     -31.183  22.028  23.587  0.00  0.00     0.141 C 
ATOM      4  C   UNL d   1     -31.428  21.850  24.987  0.00  0.00     0.107 C 
ATOM      5  N   UNL d   1     -31.620  21.708  26.097  0.00  0.00    -0.191 NA
ENDROOT
BRANCH   3   6
ATOM      6  C   UNL d   1     -29.834  22.369  23.113  0.00  0.00     0.269 C 
ATOM      7  O   UNL d   1     -29.689  23.211  22.247  0.00  0.00    -0.266 OA
ATOM      8  N   UNL d   1     -28.760  21.750  23.640  0.00  0.00    -0.322 N 
ATOM      9  H   UNL d   1     -28.879  21.027  24.275  0.00  0.00     0.169 HD
BRANCH   8  10
ATOM     10  C   UNL d   1     -27.473  22.150  23.270  0.00  0.00     0.035 A 
ATOM     11  C   UNL d   1     -26.863  21.587  22.156  0.00  0.00     0.030 A 
ATOM     12  C   UNL d   1     -25.596  21.984  21.787  0.00  0.00     0.014 A 
ATOM     13  C   UNL d   1     -24.920  22.943  22.540  0.00  0.00    -0.026 A 
ATOM     14  C   UNL d   1     -25.533  23.507  23.658  0.00  0.00     0.014 A 
ATOM     15  C   UNL d   1     -26.803  23.110  24.020  0.00  0.00     0.030 A 
BRANCH  13  16
ATOM     16  C   UNL d   1     -23.553  23.368  22.149  0.00  0.00    -0.026 A 
ATOM     17  C   UNL d   1     -23.316  23.878  20.875  0.00  0.00     0.012 A 
ATOM     18  C   UNL d   1     -22.044  24.277  20.519  0.00  0.00     0.001 A 
ATOM     19  C   UNL d   1     -21.002  24.161  21.422  0.00  0.00     0.000 A 
ATOM     20  C   UNL d   1     -21.232  23.654  22.689  0.00  0.00     0.001 A 
ATOM     21  C   UNL d   1     -22.501  23.258  23.057  0.00  0.00     0.012 A 
ENDBRANCH  13  16
ENDBRANCH   8  10
ENDBRANCH   3   6
BRANCH   2  22
ATOM     22  O   UNL d   1     -31.974  22.050  21.379  0.00  0.00    -0.364 OA
ATOM     23  H   UNL d   1     -31.881  22.960  21.063  0.00  0.00     0.217 HD
ENDBRANCH   2  22
TORSDOF 4
ENDMDL
