MODEL 1
REMARK VINA RESULT:      -8.9      0.000      0.000
REMARK  6 active torsions:
REMARK  status: ('A' for Active; 'I' for Inactive)
REMARK    1  A    between atoms: C_2  and  N_3 
REMARK    2  A    between atoms: C_4  and  C_5 
REMARK    3  A    between atoms: C_5  and  O_6 
REMARK    4  A    between atoms: N_8  and  C_9 
REMARK    5  A    between atoms: C_12  and  C_13 
REMARK    6  A    between atoms: N_17  and  C_18 
ROOT
ATOM      1  C   UNL d   1     -28.939  22.162  22.093  0.00  0.00     0.103 A 
ATOM      2  C   UNL d   1     -28.253  22.972  22.982  0.00  0.00     0.048 A 
ATOM      3  C   UNL d   1     -26.874  23.122  22.844  0.00  0.00    -0.010 A 
ATOM      4  C   UNL d   1     -26.093  23.965  23.752  0.00  0.00    -0.027 A 
ATOM      5  C   UNL d   1     -24.766  24.073  23.573  0.00  0.00     0.109 A 
ATOM      6  N   UNL d   1     -24.109  23.422  22.568  0.00  0.00    -0.286 N 
ATOM      7  C   UNL d   1     -24.746  22.626  21.688  0.00  0.00     0.263 A 
ATOM      8  O   UNL d   1     -24.124  22.061  20.804  0.00  0.00    -0.267 OA
ATOM      9  C   UNL d   1     -26.196  22.446  21.803  0.00  0.00     0.046 A 
ATOM     10  C   UNL d   1     -26.911  21.634  20.919  0.00  0.00     0.062 A 
ATOM     11  C   UNL d   1     -28.262  21.493  21.071  0.00  0.00     0.146 A 
ATOM     12  F   UNL d   1     -28.949  20.701  20.219  0.00  0.00    -0.204 F 
ENDROOT
BRANCH   1  13
ATOM     13  N   UNL d   1     -30.323  22.006  22.225  0.00  0.00    -0.178 N 
ATOM     14  N   UNL d   1     -31.267  22.076  21.192  0.00  0.00    -0.147 NA
ATOM     15  C   UNL d   1     -32.440  21.882  21.706  0.00  0.00     0.154 A 
ATOM     16  N   UNL d   1     -32.304  21.682  23.058  0.00  0.00    -0.283 N 
ATOM     17  C   UNL d   1     -30.996  21.766  23.369  0.00  0.00     0.351 A 
ATOM     18  O   UNL d   1     -30.510  21.645  24.479  0.00  0.00    -0.244 OA
BRANCH  15  19
ATOM     19  C   UNL d   1     -33.741  21.874  20.944  0.00  0.00     0.244 C 
BRANCH  19  20
ATOM     20  O   UNL d   1     -34.534  22.993  21.345  0.00  0.00    -0.393 OA
ATOM     21  H   UNL d   1     -35.420  23.006  20.957  0.00  0.00     0.209 HD
ENDBRANCH  19  20
ENDBRANCH  15  19
BRANCH  16  22
ATOM     22  C   UNL d   1     -33.397  21.428  24.001  0.00  0.00     0.131 C 
ATOM     23  C   UNL d   1     -33.288  19.997  24.532  0.00  0.00     0.027 C 
ENDBRANCH  16  22
ENDBRANCH   1  13
BRANCH   4  24
ATOM     24  C   UNL d   1     -26.771  24.705  24.875  0.00  0.00     0.013 C 
ATOM     25  C   UNL d   1     -26.922  23.776  26.081  0.00  0.00     0.015 C 
ATOM     26  C   UNL d   1     -25.927  25.919  25.270  0.00  0.00     0.015 C 
ENDBRANCH   4  24
BRANCH   6  27
ATOM     27  C   UNL d   1     -22.717  23.586  22.450  0.00  0.00     0.074 A 
ATOM     28  C   UNL d   1     -22.138  24.362  21.461  0.00  0.00     0.067 A 
ATOM     29  N   UNL d   1     -20.840  24.439  21.461  0.00  0.00    -0.214 NA
ATOM     30  C   UNL d   1     -22.972  25.087  20.436  0.00  0.00     0.074 C 
ATOM     31  S   UNL d   1     -20.277  23.491  22.749  0.00  0.00     0.002 SA
ATOM     32  C   UNL d   1     -21.834  22.994  23.292  0.00  0.00     0.102 A 
ENDBRANCH   6  27
TORSDOF 6
ENDMDL
