MODEL 1
REMARK VINA RESULT:      -9.6      0.000      0.000
REMARK  7 active torsions:
REMARK  status: ('A' for Active; 'I' for Inactive)
REMARK    1  A    between atoms: C_8  and  N_9 
REMARK       I    between atoms: N_9  and  C_10 
REMARK    2  A    between atoms: C_10  and  C_12 
REMARK    3  A    between atoms: C_16  and  N_17 
REMARK    4  A    between atoms: C_28  and  O_29 
REMARK    5  A    between atoms: O_29  and  C_30 
REMARK    6  A    between atoms: C_30  and  C_32 
REMARK    7  A    between atoms: C_32  and  N_33 
ROOT
ATOM      1  C   UNL d   1     -25.718  22.555  22.186  0.00  0.00     0.068 A 
ATOM      2  C   UNL d   1     -26.335  21.636  21.329  0.00  0.00     0.064 A 
ATOM      3  C   UNL d   1     -27.702  21.480  21.358  0.00  0.00     0.146 A 
ATOM      4  F   UNL d   1     -28.297  20.593  20.531  0.00  0.00    -0.204 F 
ATOM      5  C   UNL d   1     -28.477  22.235  22.239  0.00  0.00     0.104 A 
ATOM      6  C   UNL d   1     -27.873  23.148  23.092  0.00  0.00     0.073 A 
ATOM      7  C   UNL d   1     -26.498  23.310  23.076  0.00  0.00     0.087 A 
ENDROOT
BRANCH   1   8
ATOM      8  C   UNL d   1     -24.256  22.725  22.159  0.00  0.00     0.259 C 
ATOM      9  N   UNL d   1     -23.723  23.960  22.090  0.00  0.00    -0.322 N 
ATOM     10  H   UNL d   1     -24.300  24.733  21.985  0.00  0.00     0.169 HD
ATOM     11  O   UNL d   1     -23.529  21.750  22.194  0.00  0.00    -0.267 OA
BRANCH   9  12
ATOM     12  C   UNL d   1     -22.337  24.130  22.172  0.00  0.00     0.043 A 
ATOM     13  C   UNL d   1     -21.584  24.277  21.015  0.00  0.00    -0.035 A 
ATOM     14  C   UNL d   1     -22.260  24.255  19.669  0.00  0.00     0.050 C 
ATOM     15  C   UNL d   1     -20.216  24.444  21.098  0.00  0.00     0.012 A 
ATOM     16  C   UNL d   1     -19.594  24.465  22.333  0.00  0.00     0.043 A 
ATOM     17  C   UNL d   1     -20.341  24.318  23.490  0.00  0.00     0.118 A 
ATOM     18  F   UNL d   1     -19.730  24.339  24.695  0.00  0.00    -0.206 F 
ATOM     19  C   UNL d   1     -21.712  24.156  23.412  0.00  0.00     0.072 A 
ENDBRANCH   9  12
ENDBRANCH   1   8
BRANCH   7  20
ATOM     20  O   UNL d   1     -25.907  24.198  23.913  0.00  0.00    -0.343 OA
BRANCH  20  21
ATOM     21  C   UNL d   1     -26.203  24.074  25.306  0.00  0.00     0.153 C 
ATOM     22  C   UNL d   1     -26.771  25.397  25.826  0.00  0.00     0.042 C 
BRANCH  21  23
ATOM     23  C   UNL d   1     -27.231  22.960  25.512  0.00  0.00     0.303 C 
BRANCH  23  24
ATOM     24  N   UNL d   1     -27.278  22.595  26.934  0.00  0.00     0.082 N 
ATOM     25  C   UNL d   1     -28.638  22.744  27.472  0.00  0.00     0.309 C 
ATOM     26  C   UNL d   1     -26.777  21.230  27.144  0.00  0.00     0.309 C 
ENDBRANCH  23  24
ENDBRANCH  21  23
ENDBRANCH  20  21
ENDBRANCH   7  20
BRANCH   5  27
ATOM     27  N   UNL d   1     -29.863  22.072  22.262  0.00  0.00    -0.178 N 
ATOM     28  C   UNL d   1     -30.612  21.735  23.335  0.00  0.00     0.351 A 
ATOM     29  N   UNL d   1     -31.895  21.711  22.937  0.00  0.00    -0.284 N 
ATOM     30  O   UNL d   1     -30.200  21.498  24.456  0.00  0.00    -0.244 OA
ATOM     31  C   UNL d   1     -31.937  22.003  21.589  0.00  0.00     0.131 A 
ATOM     32  C   UNL d   1     -33.080  21.453  23.762  0.00  0.00     0.135 C 
ATOM     33  N   UNL d   1     -30.737  22.233  21.176  0.00  0.00    -0.149 NA
ATOM     34  C   UNL d   1     -33.209  22.019  20.773  0.00  0.00     0.081 C 
ATOM     35  C   UNL d   1     -34.392  22.133  21.744  0.00  0.00     0.009 C 
ATOM     36  C   UNL d   1     -34.245  21.073  22.840  0.00  0.00     0.021 C 
ENDBRANCH   5  27
TORSDOF 7
ENDMDL
