MODEL 1
REMARK VINA RESULT:     -10.5      0.000      0.000
REMARK  7 active torsions:
REMARK  status: ('A' for Active; 'I' for Inactive)
REMARK    1  A    between atoms: C_2  and  O_3 
REMARK    2  A    between atoms: C_2  and  C_33 
REMARK    3  A    between atoms: O_3  and  C_4 
REMARK    4  A    between atoms: C_6  and  N_7 
REMARK    5  A    between atoms: C_20  and  C_21 
REMARK       I    between atoms: C_21  and  N_23 
REMARK    6  A    between atoms: N_23  and  C_24 
REMARK    7  A    between atoms: C_27  and  N_28 
ROOT
ATOM      1  C   UNL d   1     -24.578  23.563  22.921  0.00  0.00     0.087 A 
ATOM      2  C   UNL d   1     -25.778  22.925  23.181  0.00  0.00     0.073 A 
ATOM      3  C   UNL d   1     -26.683  23.481  24.074  0.00  0.00     0.104 A 
ATOM      4  C   UNL d   1     -26.383  24.679  24.722  0.00  0.00     0.146 A 
ATOM      5  F   UNL d   1     -27.266  25.213  25.594  0.00  0.00    -0.204 F 
ATOM      6  C   UNL d   1     -25.189  25.320  24.476  0.00  0.00     0.064 A 
ATOM      7  C   UNL d   1     -24.273  24.768  23.572  0.00  0.00     0.068 A 
ENDROOT
BRANCH   7   8
ATOM      8  C   UNL d   1     -22.996  25.451  23.306  0.00  0.00     0.254 C 
ATOM      9  O   UNL d   1     -22.986  26.513  22.715  0.00  0.00    -0.268 OA
ATOM     10  N   UNL d   1     -21.838  24.899  23.719  0.00  0.00    -0.352 N 
ATOM     11  H   UNL d   1     -21.846  24.051  24.191  0.00  0.00     0.163 HD
BRANCH  10  12
ATOM     12  C   UNL d   1     -20.567  25.578  23.455  0.00  0.00     0.084 C 
ATOM     13  C   UNL d   1     -19.891  25.930  24.781  0.00  0.00     0.027 C 
ATOM     14  C   UNL d   1     -18.564  26.639  24.504  0.00  0.00     0.038 C 
ATOM     15  C   UNL d   1     -17.651  25.716  23.695  0.00  0.00     0.222 C 
ATOM     16  C   UNL d   1     -18.327  25.364  22.369  0.00  0.00     0.038 C 
ATOM     17  C   UNL d   1     -19.654  24.655  22.646  0.00  0.00     0.027 C 
BRANCH  15  18
ATOM     18  N   UNL d   1     -16.376  26.396  23.431  0.00  0.00     0.084 N 
ATOM     19  C   UNL d   1     -15.601  25.683  22.407  0.00  0.00     0.309 C 
ATOM     20  C   UNL d   1     -16.599  27.796  23.042  0.00  0.00     0.309 C 
ENDBRANCH  15  18
ENDBRANCH  10  12
ENDBRANCH   7   8
BRANCH   1  21
ATOM     21  O   UNL d   1     -23.695  23.024  22.044  0.00  0.00    -0.336 OA
BRANCH  21  22
ATOM     22  C   UNL d   1     -23.922  23.278  20.656  0.00  0.00     0.232 C 
ATOM     23  C   UNL d   1     -22.612  23.708  19.994  0.00  0.00     0.049 C 
BRANCH  22  24
ATOM     24  C   UNL d   1     -24.439  22.004  19.983  0.00  0.00     0.413 C 
ATOM     25  F   UNL d   1     -23.709  21.764  18.814  0.00  0.00    -0.168 F 
ATOM     26  F   UNL d   1     -24.289  20.922  20.857  0.00  0.00    -0.168 F 
ATOM     27  F   UNL d   1     -25.792  22.161  19.664  0.00  0.00    -0.168 F 
ENDBRANCH  22  24
ENDBRANCH  21  22
ENDBRANCH   1  21
BRANCH   3  28
ATOM     28  N   UNL d   1     -27.896  22.837  24.328  0.00  0.00    -0.178 N 
ATOM     29  C   UNL d   1     -28.199  22.107  25.423  0.00  0.00     0.351 A 
ATOM     30  N   UNL d   1     -29.469  21.690  25.288  0.00  0.00    -0.284 N 
ATOM     31  O   UNL d   1     -27.458  21.870  26.361  0.00  0.00    -0.244 OA
ATOM     32  C   UNL d   1     -29.944  22.135  24.072  0.00  0.00     0.131 A 
ATOM     33  C   UNL d   1     -30.261  20.914  26.250  0.00  0.00     0.135 C 
ATOM     34  N   UNL d   1     -29.022  22.825  23.492  0.00  0.00    -0.149 NA
ATOM     35  C   UNL d   1     -31.329  21.830  23.550  0.00  0.00     0.081 C 
ATOM     36  C   UNL d   1     -32.195  21.382  24.735  0.00  0.00     0.009 C 
ATOM     37  C   UNL d   1     -31.452  20.291  25.513  0.00  0.00     0.021 C 
ENDBRANCH   3  28
TORSDOF 7
ENDMDL
