MODEL 1
REMARK VINA RESULT:      -9.5      0.000      0.000
REMARK  4 active torsions:
REMARK  status: ('A' for Active; 'I' for Inactive)
REMARK    1  A    between atoms: C_8  and  C_9 
REMARK    2  A    between atoms: C_16  and  O_17 
REMARK    3  A    between atoms: C_18  and  C_19 
REMARK    4  A    between atoms: C_19  and  O_21 
ROOT
ATOM      1  C   UNL d   1     -34.313  20.942  23.398  0.00  0.00     0.048 C 
ATOM      2  C   UNL d   1     -32.875  21.329  23.166  0.00  0.00    -0.060 A 
ATOM      3  C   UNL d   1     -32.469  21.735  21.897  0.00  0.00     0.015 A 
ATOM      4  C   UNL d   1     -31.177  22.092  21.654  0.00  0.00    -0.032 A 
ATOM      5  C   UNL d   1     -30.760  22.529  20.273  0.00  0.00     0.050 C 
ATOM      6  C   UNL d   1     -30.234  22.052  22.697  0.00  0.00     0.075 A 
ATOM      7  N   UNL d   1     -28.962  22.397  22.485  0.00  0.00    -0.244 NA
ATOM      8  C   UNL d   1     -28.055  22.370  23.436  0.00  0.00     0.102 A 
ATOM      9  C   UNL d   1     -28.362  21.975  24.755  0.00  0.00     0.113 A 
ATOM     10  C   UNL d   1     -29.668  21.597  25.067  0.00  0.00     0.085 A 
ATOM     11  C   UNL d   1     -30.654  21.637  23.985  0.00  0.00     0.013 A 
ATOM     12  C   UNL d   1     -31.988  21.278  24.200  0.00  0.00     0.021 A 
ENDROOT
BRANCH   8  13
ATOM     13  C   UNL d   1     -26.664  22.764  23.111  0.00  0.00    -0.004 A 
ATOM     14  C   UNL d   1     -25.945  22.059  22.147  0.00  0.00     0.015 A 
ATOM     15  C   UNL d   1     -24.650  22.429  21.847  0.00  0.00     0.024 A 
ATOM     16  C   UNL d   1     -24.065  23.500  22.502  0.00  0.00     0.034 A 
ATOM     17  C   UNL d   1     -24.776  24.205  23.460  0.00  0.00     0.024 A 
ATOM     18 CL   UNL d   1     -22.436  23.962  22.120  0.00  0.00    -0.084 Cl
ATOM     19  C   UNL d   1     -26.073  23.845  23.764  0.00  0.00     0.015 A 
ENDBRANCH   8  13
BRANCH   9  20
ATOM     20  O   UNL d   1     -27.399  21.962  25.709  0.00  0.00    -0.357 OA
ATOM     21  H   UNL d   1     -27.134  21.074  25.987  0.00  0.00     0.217 HD
ENDBRANCH   9  20
BRANCH  10  22
ATOM     22  C   UNL d   1     -30.040  21.176  26.429  0.00  0.00     0.180 C 
ATOM     23  O   UNL d   1     -29.810  21.904  27.374  0.00  0.00    -0.646 OA
BRANCH  22  24
ATOM     24  O   UNL d   1     -30.637  19.984  26.626  0.00  0.00    -0.773 OA
ATOM     25  H   UNL d   1     -30.089  19.195  26.516  0.00  0.00     0.167 HD
ENDBRANCH  22  24
ENDBRANCH  10  22
TORSDOF 4
ENDMDL
