MODEL 1
REMARK VINA RESULT:     -11.2      0.000      0.000
REMARK  7 active torsions:
REMARK  status: ('A' for Active; 'I' for Inactive)
REMARK    1  A    between atoms: C_2  and  O_3 
REMARK    2  A    between atoms: C_2  and  C_34 
REMARK    3  A    between atoms: O_3  and  C_4 
REMARK    4  A    between atoms: C_6  and  N_7 
REMARK    5  A    between atoms: C_20  and  C_21 
REMARK       I    between atoms: C_21  and  N_23 
REMARK    6  A    between atoms: N_23  and  C_24 
REMARK    7  A    between atoms: C_24  and  C_25 
ROOT
ATOM      1  C   UNL d   1     -24.742  23.415  22.733  0.00  0.00     0.087 A 
ATOM      2  C   UNL d   1     -25.963  22.812  22.982  0.00  0.00     0.073 A 
ATOM      3  C   UNL d   1     -26.819  23.342  23.936  0.00  0.00     0.104 A 
ATOM      4  C   UNL d   1     -26.456  24.487  24.646  0.00  0.00     0.146 A 
ATOM      5  F   UNL d   1     -27.298  25.002  25.570  0.00  0.00    -0.204 F 
ATOM      6  C   UNL d   1     -25.242  25.092  24.411  0.00  0.00     0.064 A 
ATOM      7  C   UNL d   1     -24.373  24.563  23.450  0.00  0.00     0.068 A 
ENDROOT
BRANCH   7   8
ATOM      8  C   UNL d   1     -23.075  25.210  23.191  0.00  0.00     0.255 C 
ATOM      9  O   UNL d   1     -23.020  26.199  22.486  0.00  0.00    -0.268 OA
ATOM     10  N   UNL d   1     -21.950  24.706  23.737  0.00  0.00    -0.343 N 
ATOM     11  H   UNL d   1     -21.984  23.878  24.240  0.00  0.00     0.164 HD
BRANCH  10  12
ATOM     12  C   UNL d   1     -20.676  25.410  23.569  0.00  0.00     0.060 A 
ATOM     13  C   UNL d   1     -19.505  24.620  22.981  0.00  0.00     0.039 A 
ATOM     14  C   UNL d   1     -20.207  25.689  22.140  0.00  0.00     0.039 A 
BRANCH  12  15
ATOM     15  C   UNL d   1     -20.361  26.444  24.619  0.00  0.00    -0.030 A 
ATOM     16  C   UNL d   1     -21.385  27.141  25.232  0.00  0.00     0.013 A 
ATOM     17  C   UNL d   1     -21.097  28.089  26.196  0.00  0.00     0.043 A 
ATOM     18  C   UNL d   1     -19.782  28.340  26.548  0.00  0.00     0.116 A 
ATOM     19  C   UNL d   1     -18.757  27.641  25.933  0.00  0.00     0.043 A 
ATOM     20  F   UNL d   1     -19.498  29.266  27.489  0.00  0.00    -0.206 F 
ATOM     21  C   UNL d   1     -19.048  26.690  24.973  0.00  0.00     0.013 A 
ENDBRANCH  12  15
ENDBRANCH  10  12
ENDBRANCH   7   8
BRANCH   1  22
ATOM     22  O   UNL d   1     -23.904  22.897  21.800  0.00  0.00    -0.336 OA
BRANCH  22  23
ATOM     23  C   UNL d   1     -24.037  23.389  20.466  0.00  0.00     0.232 C 
ATOM     24  C   UNL d   1     -22.667  23.832  19.946  0.00  0.00     0.049 C 
BRANCH  23  25
ATOM     25  C   UNL d   1     -24.589  22.281  19.566  0.00  0.00     0.413 C 
ATOM     26  F   UNL d   1     -25.913  22.005  19.925  0.00  0.00    -0.168 F 
ATOM     27  F   UNL d   1     -24.547  22.699  18.231  0.00  0.00    -0.168 F 
ATOM     28  F   UNL d   1     -23.814  21.127  19.718  0.00  0.00    -0.168 F 
ENDBRANCH  23  25
ENDBRANCH  22  23
ENDBRANCH   1  22
BRANCH   3  29
ATOM     29  N   UNL d   1     -28.050  22.731  24.184  0.00  0.00    -0.178 N 
ATOM     30  C   UNL d   1     -28.377  22.002  25.272  0.00  0.00     0.351 A 
ATOM     31  N   UNL d   1     -29.659  21.623  25.131  0.00  0.00    -0.284 N 
ATOM     32  O   UNL d   1     -27.646  21.736  26.209  0.00  0.00    -0.244 OA
ATOM     33  C   UNL d   1     -30.118  22.092  23.917  0.00  0.00     0.131 A 
ATOM     34  C   UNL d   1     -30.475  20.862  26.083  0.00  0.00     0.135 C 
ATOM     35  N   UNL d   1     -29.175  22.759  23.344  0.00  0.00    -0.149 NA
ATOM     36  C   UNL d   1     -31.509  21.830  23.389  0.00  0.00     0.081 C 
ATOM     37  C   UNL d   1     -32.391  21.398  24.569  0.00  0.00     0.009 C 
ATOM     38  C   UNL d   1     -31.682  20.280  25.339  0.00  0.00     0.021 C 
ENDBRANCH   3  29
TORSDOF 7
ENDMDL
