MODEL 1
REMARK VINA RESULT:     -10.6      0.000      0.000
REMARK  7 active torsions:
REMARK  status: ('A' for Active; 'I' for Inactive)
REMARK    1  A    between atoms: O_2  and  C_3 
REMARK    2  A    between atoms: C_5  and  C_6 
REMARK    3  A    between atoms: C_8  and  C_9 
REMARK    4  A    between atoms: C_9  and  O_11 
REMARK    5  A    between atoms: C_21  and  O_22 
REMARK    6  A    between atoms: O_22  and  C_23 
REMARK    7  A    between atoms: C_23  and  C_24 
ROOT
ATOM      1  C   UNL d   1     -28.698  22.214  23.176  0.00  0.00     0.069 A 
ATOM      2  C   UNL d   1     -29.151  21.752  24.422  0.00  0.00     0.051 A 
ATOM      3  C   UNL d   1     -30.490  21.427  24.584  0.00  0.00     0.052 A 
ATOM      4  C   UNL d   1     -31.365  21.589  23.422  0.00  0.00     0.010 A 
ATOM      5  C   UNL d   1     -32.729  21.288  23.487  0.00  0.00     0.015 A 
ATOM      6  C   UNL d   1     -33.509  21.452  22.381  0.00  0.00     0.001 A 
ATOM      7  C   UNL d   1     -32.963  21.917  21.185  0.00  0.00     0.002 A 
ATOM      8  C   UNL d   1     -31.641  22.220  21.088  0.00  0.00     0.032 A 
ATOM      9  C   UNL d   1     -30.804  22.063  22.209  0.00  0.00     0.068 A 
ATOM     10  N   UNL d   1     -29.504  22.357  22.144  0.00  0.00    -0.247 NA
ENDROOT
BRANCH   1  11
ATOM     11  C   UNL d   1     -27.266  22.557  23.016  0.00  0.00    -0.004 A 
ATOM     12  C   UNL d   1     -26.504  21.935  22.028  0.00  0.00     0.053 A 
ATOM     13  C   UNL d   1     -25.166  22.254  21.885  0.00  0.00     0.102 A 
ATOM     14  C   UNL d   1     -24.584  23.203  22.723  0.00  0.00     0.102 A 
ATOM     15  C   UNL d   1     -25.343  23.822  23.707  0.00  0.00     0.040 A 
ATOM     16  C   UNL d   1     -26.677  23.503  23.855  0.00  0.00     0.017 A 
BRANCH  13  17
ATOM     17  O   UNL d   1     -24.419  21.645  20.926  0.00  0.00    -0.353 OA
ATOM     18  C   UNL d   1     -24.467  22.208  19.613  0.00  0.00     0.210 C 
ENDBRANCH  13  17
BRANCH  14  19
ATOM     19  O   UNL d   1     -23.271  23.521  22.580  0.00  0.00    -0.348 OA
BRANCH  19  20
ATOM     20  C   UNL d   1     -22.969  24.742  21.901  0.00  0.00     0.179 C 
BRANCH  20  21
ATOM     21  C   UNL d   1     -22.247  25.693  22.858  0.00  0.00     0.002 C 
ATOM     22  C   UNL d   1     -23.239  26.727  23.393  0.00  0.00     0.011 C 
ATOM     23  C   UNL d   1     -21.663  24.895  24.025  0.00  0.00     0.011 C 
ENDBRANCH  20  21
ENDBRANCH  19  20
ENDBRANCH  14  19
ENDBRANCH   1  11
BRANCH   3  24
ATOM     24  C   UNL d   1     -31.012  20.937  25.877  0.00  0.00     0.177 C 
ATOM     25  O   UNL d   1     -31.792  21.616  26.514  0.00  0.00    -0.646 OA
BRANCH  24  26
ATOM     26  O   UNL d   1     -30.621  19.737  26.348  0.00  0.00    -0.773 OA
ATOM     27  H   UNL d   1     -30.077  19.736  27.148  0.00  0.00     0.167 HD
ENDBRANCH  24  26
ENDBRANCH   3  24
TORSDOF 7
ENDMDL
