MODEL 1
REMARK VINA RESULT:      -9.2      0.000      0.000
REMARK  7 active torsions:
REMARK  status: ('A' for Active; 'I' for Inactive)
REMARK    1  A    between atoms: O_2  and  C_3 
REMARK    2  A    between atoms: C_3  and  C_5 
REMARK    3  A    between atoms: C_9  and  C_10 
REMARK    4  A    between atoms: C_10  and  C_11 
REMARK    5  A    between atoms: C_11  and  C_12 
REMARK    6  A    between atoms: CA_13  and  C_14 
REMARK    7  A    between atoms: C_14  and  OXT_16 
ROOT
ATOM      1  C   UNL d   1     -27.388  22.119  22.621  0.00  0.00     0.044 A 
ATOM      2  CA  UNL d   1     -26.420  22.805  23.283  0.00  0.00     0.122 A 
ATOM      3  N   UNL d   1     -25.162  22.906  22.730  0.00  0.00    -0.302 N 
ATOM      4  H   UNL d   1     -24.470  23.392  23.204  0.00  0.00     0.171 HD
ATOM      5  C   UNL d   1     -24.878  22.345  21.542  0.00  0.00     0.327 A 
ATOM      6  O   UNL d   1     -23.757  22.460  21.086  0.00  0.00    -0.247 OA
ATOM      7  N   UNL d   1     -25.801  21.661  20.845  0.00  0.00    -0.275 N 
ATOM      8  H   UNL d   1     -25.566  21.267  19.989  0.00  0.00     0.173 HD
ATOM      9  C   UNL d   1     -27.054  21.517  21.325  0.00  0.00     0.258 A 
ATOM     10  O   UNL d   1     -27.891  20.897  20.696  0.00  0.00    -0.267 OA
ENDROOT
BRANCH   1  11
ATOM     11  C   UNL d   1     -28.773  21.986  23.200  0.00  0.00     0.051 C 
BRANCH  11  12
ATOM     12  C   UNL d   1     -29.773  22.720  22.304  0.00  0.00     0.043 C 
BRANCH  12  13
ATOM     13  C   UNL d   1     -31.133  22.090  22.447  0.00  0.00    -0.057 A 
ATOM     14  C   UNL d   1     -31.998  22.060  21.368  0.00  0.00     0.007 A 
ATOM     15  C   UNL d   1     -33.248  21.478  21.490  0.00  0.00     0.002 A 
ATOM     16  C   UNL d   1     -33.644  20.933  22.694  0.00  0.00     0.017 A 
ATOM     17  C   UNL d   1     -32.779  20.966  23.789  0.00  0.00     0.040 A 
ATOM     18  C   UNL d   1     -31.517  21.550  23.657  0.00  0.00     0.024 A 
BRANCH  17  19
ATOM     19  C   UNL d   1     -33.196  20.386  25.082  0.00  0.00     0.292 C 
ATOM     20  O   UNL d   1     -34.344  20.021  25.242  0.00  0.00    -0.259 OA
BRANCH  19  21
ATOM     21  O   UNL d   1     -32.303  20.262  26.084  0.00  0.00    -0.323 OA
ATOM     22  C   UNL d   1     -31.669  18.966  26.244  0.00  0.00     0.213 C 
ENDBRANCH  19  21
ENDBRANCH  17  19
ENDBRANCH  12  13
ENDBRANCH  11  12
ENDBRANCH   1  11
BRANCH   2  23
ATOM     23  C   UNL d   1     -26.714  23.437  24.592  0.00  0.00     0.194 C 
ATOM     24  O   UNL d   1     -26.909  22.745  25.570  0.00  0.00    -0.645 OA
BRANCH  23  25
ATOM     25  OXT UNL d   1     -26.765  24.779  24.696  0.00  0.00    -0.772 OA
ATOM     26  HXT UNL d   1     -26.095  25.203  25.249  0.00  0.00     0.167 HD
ENDBRANCH  23  25
ENDBRANCH   2  23
TORSDOF 7
ENDMDL
