MODEL 1
REMARK VINA RESULT:     -11.4      0.000      0.000
REMARK  7 active torsions:
REMARK  status: ('A' for Active; 'I' for Inactive)
REMARK    1  A    between atoms: C_2  and  O_3 
REMARK    2  A    between atoms: C_2  and  C_4 
REMARK    3  A    between atoms: C_5  and  C_6 
REMARK       I    between atoms: C_6  and  N_8 
REMARK    4  A    between atoms: N_8  and  C_9 
REMARK    5  A    between atoms: C_12  and  O_13 
REMARK    6  A    between atoms: O_13  and  C_14 
REMARK    7  A    between atoms: C_14  and  C_15 
ROOT
ATOM      1  C   UNL d   1     -25.660  23.008  23.392  0.00  0.00     0.036 A 
ATOM      2  C   UNL d   1     -26.412  23.150  24.551  0.00  0.00     0.032 A 
ATOM      3  C   UNL d   1     -27.717  22.702  24.585  0.00  0.00     0.041 A 
ATOM      4  C   UNL d   1     -28.278  22.107  23.465  0.00  0.00     0.091 A 
ATOM      5  C   UNL d   1     -27.528  21.969  22.304  0.00  0.00     0.069 A 
ATOM      6 CL   UNL d   1     -28.231  21.229  20.899  0.00  0.00    -0.081 Cl
ATOM      7  C   UNL d   1     -26.222  22.416  22.268  0.00  0.00     0.056 A 
ENDROOT
BRANCH   1   8
ATOM      8  N   UNL d   1     -24.336  23.461  23.356  0.00  0.00    -0.323 N 
ATOM      9  C   UNL d   1     -24.078  24.783  23.284  0.00  0.00     0.253 C 
ATOM     10  O   UNL d   1     -24.989  25.585  23.359  0.00  0.00    -0.268 OA
ATOM     11  H   UNL d   1     -23.605  22.826  23.382  0.00  0.00     0.169 HD
BRANCH   9  12
ATOM     12  C   UNL d   1     -22.690  25.255  23.115  0.00  0.00     0.023 C 
ATOM     13  C   UNL d   1     -21.995  25.189  21.972  0.00  0.00     0.027 C 
ATOM     14  C   UNL d   1     -20.610  25.764  22.159  0.00  0.00     0.046 C 
ATOM     15  C   UNL d   1     -20.400  25.805  23.689  0.00  0.00     0.010 C 
ATOM     16  C   UNL d   1     -21.857  25.887  24.206  0.00  0.00     0.045 C 
BRANCH  13  17
ATOM     17  C   UNL d   1     -22.511  24.634  20.706  0.00  0.00     0.172 C 
ATOM     18  O   UNL d   1     -22.800  23.456  20.631  0.00  0.00    -0.646 OA
BRANCH  17  19
ATOM     19  O   UNL d   1     -22.663  25.434  19.632  0.00  0.00    -0.773 OA
ATOM     20  H   UNL d   1     -23.137  25.067  18.874  0.00  0.00     0.167 HD
ENDBRANCH  17  19
ENDBRANCH  13  17
ENDBRANCH   9  12
ENDBRANCH   1   8
BRANCH   4  21
ATOM     21  O   UNL d   1     -29.562  21.661  23.502  0.00  0.00    -0.345 OA
BRANCH  21  22
ATOM     22  C   UNL d   1     -30.587  22.612  23.210  0.00  0.00     0.219 C 
BRANCH  22  23
ATOM     23  C   UNL d   1     -31.855  21.886  22.839  0.00  0.00     0.026 A 
ATOM     24  C   UNL d   1     -32.618  21.281  23.821  0.00  0.00     0.045 A 
ATOM     25  C   UNL d   1     -33.782  20.615  23.480  0.00  0.00     0.024 A 
ATOM     26 CL   UNL d   1     -32.117  21.358  25.481  0.00  0.00    -0.084 Cl
ATOM     27  C   UNL d   1     -34.182  20.553  22.158  0.00  0.00     0.005 A 
ATOM     28  C   UNL d   1     -33.420  21.157  21.176  0.00  0.00     0.043 A 
ATOM     29  C   UNL d   1     -32.258  21.829  21.516  0.00  0.00     0.126 A 
ATOM     30  F   UNL d   1     -31.517  22.425  20.557  0.00  0.00    -0.205 F 
ENDBRANCH  22  23
ENDBRANCH  21  22
ENDBRANCH   4  21
TORSDOF 7
ENDMDL
