MODEL 1
REMARK VINA RESULT:      -9.9      0.000      0.000
REMARK  7 active torsions:
REMARK  status: ('A' for Active; 'I' for Inactive)
REMARK    1  A    between atoms: C_2  and  C_4 
REMARK    2  A    between atoms: N_6  and  C_7 
REMARK    3  A    between atoms: C_9  and  O_10 
REMARK    4  A    between atoms: O_10  and  C_11 
REMARK    5  A    between atoms: C_11  and  C_13 
REMARK    6  A    between atoms: C_17  and  C_18 
REMARK       I    between atoms: C_18  and  N_20 
REMARK    7  A    between atoms: N_20  and  C_21 
ROOT
ATOM      1  C   UNL d   1     -26.741  23.245  23.672  0.00  0.00     0.104 A 
ATOM      2  C   UNL d   1     -25.858  22.766  22.713  0.00  0.00     0.073 A 
ATOM      3  C   UNL d   1     -24.608  23.344  22.573  0.00  0.00     0.087 A 
ATOM      4  C   UNL d   1     -24.237  24.413  23.403  0.00  0.00     0.068 A 
ATOM      5  C   UNL d   1     -25.133  24.889  24.366  0.00  0.00     0.064 A 
ATOM      6  C   UNL d   1     -26.374  24.307  24.497  0.00  0.00     0.146 A 
ATOM      7  F   UNL d   1     -27.241  24.771  25.424  0.00  0.00    -0.204 F 
ENDROOT
BRANCH   4   8
ATOM      8  C   UNL d   1     -22.908  25.033  23.259  0.00  0.00     0.259 C 
ATOM      9  O   UNL d   1     -22.785  26.072  22.639  0.00  0.00    -0.267 OA
ATOM     10  N   UNL d   1     -21.828  24.448  23.816  0.00  0.00    -0.320 N 
ATOM     11  H   UNL d   1     -21.912  23.579  24.237  0.00  0.00     0.169 HD
BRANCH  10  12
ATOM     12  C   UNL d   1     -20.588  25.095  23.784  0.00  0.00     0.073 A 
ATOM     13  C   UNL d   1     -19.655  24.767  22.806  0.00  0.00     0.143 A 
ATOM     14  C   UNL d   1     -18.433  25.413  22.775  0.00  0.00     0.044 A 
ATOM     15  F   UNL d   1     -19.947  23.824  21.884  0.00  0.00    -0.204 F 
ATOM     16  C   UNL d   1     -18.134  26.375  23.722  0.00  0.00     0.003 A 
ATOM     17  C   UNL d   1     -19.057  26.699  24.699  0.00  0.00     0.002 A 
ATOM     18  C   UNL d   1     -20.283  26.062  24.733  0.00  0.00     0.033 A 
ENDBRANCH  10  12
ENDBRANCH   4   8
BRANCH   3  19
ATOM     19  O   UNL d   1     -23.744  22.879  21.636  0.00  0.00    -0.336 OA
BRANCH  19  20
ATOM     20  C   UNL d   1     -23.860  23.424  20.320  0.00  0.00     0.232 C 
ATOM     21  C   UNL d   1     -22.477  23.853  19.823  0.00  0.00     0.049 C 
BRANCH  20  22
ATOM     22  C   UNL d   1     -24.434  22.365  19.377  0.00  0.00     0.413 C 
ATOM     23  F   UNL d   1     -23.587  21.252  19.355  0.00  0.00    -0.168 F 
ATOM     24  F   UNL d   1     -25.701  21.978  19.826  0.00  0.00    -0.168 F 
ATOM     25  F   UNL d   1     -24.539  22.897  18.087  0.00  0.00    -0.168 F 
ENDBRANCH  20  22
ENDBRANCH  19  20
ENDBRANCH   3  19
BRANCH   1  26
ATOM     26  N   UNL d   1     -28.002  22.660  23.810  0.00  0.00    -0.178 N 
ATOM     27  N   UNL d   1     -29.029  22.667  22.856  0.00  0.00    -0.149 NA
ATOM     28  C   UNL d   1     -30.040  22.025  23.348  0.00  0.00     0.134 A 
ATOM     29  N   UNL d   1     -29.716  21.587  24.609  0.00  0.00    -0.288 N 
ATOM     30  C   UNL d   1     -28.455  21.979  24.883  0.00  0.00     0.351 A 
ATOM     31  C   UNL d   1     -30.589  20.820  25.501  0.00  0.00     0.162 C 
ATOM     32  O   UNL d   1     -27.839  21.761  25.911  0.00  0.00    -0.244 OA
BRANCH  28  33
ATOM     33  C   UNL d   1     -31.357  21.794  22.651  0.00  0.00     0.049 C 
ATOM     34  C   UNL d   1     -32.447  22.624  23.333  0.00  0.00     0.018 C 
ATOM     35  C   UNL d   1     -31.237  22.214  21.186  0.00  0.00     0.018 C 
ENDBRANCH  28  33
ENDBRANCH   1  26
TORSDOF 7
ENDMDL
