MODEL 1
REMARK VINA RESULT:     -10.1      0.000      0.000
REMARK  9 active torsions:
REMARK  status: ('A' for Active; 'I' for Inactive)
REMARK    1  A    between atoms: C_2  and  C_3 
REMARK    2  A    between atoms: C_3  and  C_4 
REMARK    3  A    between atoms: C_4  and  O_6 
REMARK    4  A    between atoms: O_6  and  C_7 
REMARK    5  A    between atoms: C_9  and  N_10 
REMARK    6  A    between atoms: C_12  and  C_13 
REMARK    7  A    between atoms: C_13  and  O_16 
REMARK    8  A    between atoms: C_24  and  C_25 
REMARK       I    between atoms: C_25  and  N_27 
REMARK    9  A    between atoms: N_27  and  C_28 
ROOT
ATOM      1  C   UNL d   1     -26.403  23.090  23.226  0.00  0.00     0.087 A 
ATOM      2  C   UNL d   1     -27.760  22.929  23.442  0.00  0.00     0.073 A 
ATOM      3  C   UNL d   1     -28.511  22.133  22.588  0.00  0.00     0.104 A 
ATOM      4  C   UNL d   1     -27.901  21.494  21.508  0.00  0.00     0.146 A 
ATOM      5  F   UNL d   1     -28.637  20.720  20.680  0.00  0.00    -0.204 F 
ATOM      6  C   UNL d   1     -26.553  21.652  21.280  0.00  0.00     0.064 A 
ATOM      7  C   UNL d   1     -25.788  22.448  22.141  0.00  0.00     0.068 A 
ENDROOT
BRANCH   3   8
ATOM      8  N   UNL d   1     -29.880  21.973  22.809  0.00  0.00    -0.178 N 
ATOM      9  C   UNL d   1     -30.467  21.642  23.978  0.00  0.00     0.351 A 
ATOM     10  N   UNL d   1     -31.798  21.595  23.762  0.00  0.00    -0.286 N 
ATOM     11  O   UNL d   1     -29.901  21.428  25.035  0.00  0.00    -0.244 OA
ATOM     12  C   UNL d   1     -32.031  21.891  22.441  0.00  0.00     0.164 A 
ATOM     13  C   UNL d   1     -32.818  21.276  24.763  0.00  0.00     0.163 C 
ATOM     14  N   UNL d   1     -30.898  22.118  21.858  0.00  0.00    -0.146 NA
BRANCH  12  15
ATOM     15  C   UNL d   1     -33.385  21.941  21.780  0.00  0.00     0.112 C 
ATOM     16  C   UNL d   1     -34.071  20.580  21.919  0.00  0.00     0.054 C 
ATOM     17  C   UNL d   1     -34.241  23.015  22.454  0.00  0.00     0.054 C 
BRANCH  15  18
ATOM     18  O   UNL d   1     -33.227  22.256  20.396  0.00  0.00    -0.383 OA
ATOM     19  H   UNL d   1     -33.642  23.090  20.132  0.00  0.00     0.211 HD
ENDBRANCH  15  18
ENDBRANCH  12  15
ENDBRANCH   3   8
BRANCH   1  20
ATOM     20  O   UNL d   1     -25.668  23.867  24.062  0.00  0.00    -0.345 OA
BRANCH  20  21
ATOM     21  C   UNL d   1     -26.024  25.249  24.143  0.00  0.00     0.124 C 
ATOM     22  C   UNL d   1     -26.347  25.608  25.595  0.00  0.00     0.040 C 
BRANCH  21  23
ATOM     23  C   UNL d   1     -24.857  26.106  23.654  0.00  0.00     0.032 C 
BRANCH  23  24
ATOM     24  C   UNL d   1     -23.776  26.163  24.736  0.00  0.00    -0.002 C 
ATOM     25  C   UNL d   1     -22.559  26.921  24.202  0.00  0.00     0.005 C 
ENDBRANCH  23  24
ENDBRANCH  21  23
ENDBRANCH  20  21
ENDBRANCH   1  20
BRANCH   7  26
ATOM     26  C   UNL d   1     -24.343  22.614  21.906  0.00  0.00     0.259 C 
ATOM     27  O   UNL d   1     -23.677  21.670  21.524  0.00  0.00    -0.267 OA
ATOM     28  N   UNL d   1     -23.759  23.810  22.114  0.00  0.00    -0.320 N 
ATOM     29  H   UNL d   1     -24.272  24.541  22.495  0.00  0.00     0.169 HD
BRANCH  28  30
ATOM     30  C   UNL d   1     -22.414  24.000  21.779  0.00  0.00     0.080 A 
ATOM     31  C   UNL d   1     -22.068  24.453  20.510  0.00  0.00     0.143 A 
ATOM     32  C   UNL d   1     -20.738  24.640  20.183  0.00  0.00     0.045 A 
ATOM     33  F   UNL d   1     -23.031  24.709  19.598  0.00  0.00    -0.204 F 
ATOM     34  C   UNL d   1     -19.752  24.376  21.117  0.00  0.00     0.004 A 
ATOM     35  C   UNL d   1     -20.093  23.921  22.377  0.00  0.00     0.009 A 
ATOM     36  C   UNL d   1     -21.421  23.738  22.713  0.00  0.00    -0.032 A 
ATOM     37  C   UNL d   1     -21.790  23.247  24.089  0.00  0.00     0.050 C 
ENDBRANCH  28  30
ENDBRANCH   7  26
TORSDOF 9
ENDMDL
