MODEL 1
REMARK VINA RESULT:     -10.9      0.000      0.000
REMARK  6 active torsions:
REMARK  status: ('A' for Active; 'I' for Inactive)
REMARK    1  A    between atoms: C_2  and  O_3 
REMARK    2  A    between atoms: C_2  and  C_4 
REMARK    3  A    between atoms: C_5  and  C_6 
REMARK       I    between atoms: C_6  and  N_8 
REMARK    4  A    between atoms: N_8  and  C_9 
REMARK    5  A    between atoms: C_12  and  C_13 
REMARK    6  A    between atoms: C_17  and  O_18 
ROOT
ATOM      1  C   UNL d   1     -27.594  22.049  23.288  0.00  0.00     0.074 A 
ATOM      2  C   UNL d   1     -26.950  22.948  24.131  0.00  0.00     0.034 A 
ATOM      3  C   UNL d   1     -25.679  23.389  23.830  0.00  0.00     0.014 A 
ATOM      4  C   UNL d   1     -25.038  22.933  22.678  0.00  0.00    -0.023 A 
ATOM      5  C   UNL d   1     -25.683  22.032  21.833  0.00  0.00     0.057 A 
ATOM      6  C   UNL d   1     -26.958  21.597  22.135  0.00  0.00     0.143 A 
ATOM      7  F   UNL d   1     -27.586  20.727  21.314  0.00  0.00    -0.204 F 
ENDROOT
BRANCH   1   8
ATOM      8  N   UNL d   1     -28.882  21.603  23.597  0.00  0.00    -0.321 N 
ATOM      9  C   UNL d   1     -29.954  22.227  23.071  0.00  0.00     0.253 C 
ATOM     10  O   UNL d   1     -29.801  23.111  22.250  0.00  0.00    -0.268 OA
ATOM     11  H   UNL d   1     -29.004  20.844  24.188  0.00  0.00     0.169 HD
BRANCH   9  12
ATOM     12  C   UNL d   1     -31.314  21.837  23.491  0.00  0.00     0.023 C 
ATOM     13  C   UNL d   1     -31.627  21.339  24.695  0.00  0.00     0.027 C 
ATOM     14  C   UNL d   1     -33.109  21.051  24.781  0.00  0.00     0.046 C 
ATOM     15  C   UNL d   1     -33.598  21.043  23.315  0.00  0.00     0.010 C 
ATOM     16  C   UNL d   1     -32.548  21.949  22.626  0.00  0.00     0.045 C 
BRANCH  13  17
ATOM     17  C   UNL d   1     -30.662  21.105  25.784  0.00  0.00     0.172 C 
ATOM     18  O   UNL d   1     -30.238  22.040  26.432  0.00  0.00    -0.646 OA
BRANCH  17  19
ATOM     19  O   UNL d   1     -30.249  19.852  26.061  0.00  0.00    -0.773 OA
ATOM     20  H   UNL d   1     -30.830  19.128  25.791  0.00  0.00     0.167 HD
ENDBRANCH  17  19
ENDBRANCH  13  17
ENDBRANCH   9  12
ENDBRANCH   1   8
BRANCH   4  21
ATOM     21  C   UNL d   1     -23.671  23.408  22.353  0.00  0.00    -0.023 A 
ATOM     22  C   UNL d   1     -23.411  24.000  21.120  0.00  0.00     0.048 A 
ATOM     23  C   UNL d   1     -22.132  24.441  20.822  0.00  0.00     0.066 A 
ATOM     24  C   UNL d   1     -21.113  24.295  21.753  0.00  0.00     0.036 A 
ATOM     25  C   UNL d   1     -21.371  23.708  22.978  0.00  0.00     0.004 A 
ATOM     26  C   UNL d   1     -22.642  23.270  23.285  0.00  0.00     0.012 A 
BRANCH  23  27
ATOM     27  O   UNL d   1     -21.876  25.018  19.619  0.00  0.00    -0.361 OA
ATOM     28  H   UNL d   1     -21.897  24.402  18.874  0.00  0.00     0.217 HD
ENDBRANCH  23  27
ENDBRANCH   4  21
TORSDOF 6
ENDMDL
