MODEL 1
REMARK VINA RESULT:      -9.5      0.000      0.000
REMARK  7 active torsions:
REMARK  status: ('A' for Active; 'I' for Inactive)
REMARK    1  A    between atoms: C_2  and  N_3 
REMARK    2  A    between atoms: C_4  and  C_5 
REMARK    3  A    between atoms: C_5  and  O_6 
REMARK    4  A    between atoms: N_8  and  C_9 
REMARK    5  A    between atoms: C_12  and  C_13 
REMARK    6  A    between atoms: N_17  and  C_18 
REMARK    7  A    between atoms: C_22  and  O_23 
ROOT
ATOM      1  C   UNL d   1     -28.988  22.154  22.108  0.00  0.00     0.103 A 
ATOM      2  C   UNL d   1     -28.306  22.959  23.005  0.00  0.00     0.048 A 
ATOM      3  C   UNL d   1     -26.924  23.091  22.891  0.00  0.00    -0.010 A 
ATOM      4  C   UNL d   1     -26.146  23.922  23.813  0.00  0.00    -0.027 A 
ATOM      5  C   UNL d   1     -24.817  24.016  23.655  0.00  0.00     0.109 A 
ATOM      6  N   UNL d   1     -24.150  23.361  22.656  0.00  0.00    -0.288 N 
ATOM      7  C   UNL d   1     -24.784  22.575  21.763  0.00  0.00     0.263 A 
ATOM      8  O   UNL d   1     -24.156  22.007  20.888  0.00  0.00    -0.267 OA
ATOM      9  C   UNL d   1     -26.237  22.411  21.856  0.00  0.00     0.046 A 
ATOM     10  C   UNL d   1     -26.948  21.609  20.961  0.00  0.00     0.062 A 
ATOM     11  C   UNL d   1     -28.302  21.487  21.089  0.00  0.00     0.146 A 
ATOM     12  F   UNL d   1     -28.988  20.711  20.221  0.00  0.00    -0.204 F 
ENDROOT
BRANCH   1  13
ATOM     13  N   UNL d   1     -30.374  22.014  22.219  0.00  0.00    -0.178 N 
ATOM     14  N   UNL d   1     -31.303  22.082  21.171  0.00  0.00    -0.147 NA
ATOM     15  C   UNL d   1     -32.485  21.905  21.668  0.00  0.00     0.154 A 
ATOM     16  N   UNL d   1     -32.372  21.717  23.024  0.00  0.00    -0.283 N 
ATOM     17  C   UNL d   1     -31.067  21.792  23.355  0.00  0.00     0.351 A 
ATOM     18  O   UNL d   1     -30.599  21.676  24.474  0.00  0.00    -0.244 OA
BRANCH  15  19
ATOM     19  C   UNL d   1     -33.774  21.903  20.887  0.00  0.00     0.244 C 
BRANCH  19  20
ATOM     20  O   UNL d   1     -34.608  22.969  21.344  0.00  0.00    -0.393 OA
ATOM     21  H   UNL d   1     -35.262  23.263  20.694  0.00  0.00     0.209 HD
ENDBRANCH  19  20
ENDBRANCH  15  19
BRANCH  16  22
ATOM     22  C   UNL d   1     -33.480  21.483  23.953  0.00  0.00     0.131 C 
ATOM     23  C   UNL d   1     -33.576  19.989  24.267  0.00  0.00     0.027 C 
ENDBRANCH  16  22
ENDBRANCH   1  13
BRANCH   4  24
ATOM     24  C   UNL d   1     -26.834  24.665  24.930  0.00  0.00     0.013 C 
ATOM     25  C   UNL d   1     -26.962  23.750  26.148  0.00  0.00     0.015 C 
ATOM     26  C   UNL d   1     -26.012  25.901  25.302  0.00  0.00     0.015 C 
ENDBRANCH   4  24
BRANCH   6  27
ATOM     27  C   UNL d   1     -22.765  23.512  22.557  0.00  0.00     0.053 A 
ATOM     28  C   UNL d   1     -22.198  24.235  21.512  0.00  0.00     0.018 A 
ATOM     29  C   UNL d   1     -20.819  24.364  21.454  0.00  0.00     0.170 A 
ATOM     30  C   UNL d   1     -23.072  24.871  20.462  0.00  0.00     0.055 C 
ATOM     31  N   UNL d   1     -20.048  23.803  22.371  0.00  0.00    -0.237 NA
ATOM     32  C   UNL d   1     -20.552  23.106  23.373  0.00  0.00     0.122 A 
ATOM     33  C   UNL d   1     -21.914  22.936  23.502  0.00  0.00     0.050 A 
BRANCH  29  34
ATOM     34  O   UNL d   1     -20.253  25.071  20.443  0.00  0.00    -0.344 OA
ATOM     35  H   UNL d   1     -20.461  24.731  19.562  0.00  0.00     0.219 HD
ENDBRANCH  29  34
ENDBRANCH   6  27
TORSDOF 7
ENDMDL
