MODEL 1
REMARK VINA RESULT:      -8.0      0.000      0.000
REMARK  9 active torsions:
REMARK  status: ('A' for Active; 'I' for Inactive)
REMARK    1  A    between atoms: C_2  and  O_3 
REMARK    2  A    between atoms: C_2  and  C_36 
REMARK    3  A    between atoms: O_3  and  C_4 
REMARK    4  A    between atoms: C_6  and  N_7 
REMARK    5  A    between atoms: C_20  and  C_21 
REMARK       I    between atoms: C_21  and  N_23 
REMARK    6  A    between atoms: N_23  and  C_24 
REMARK    7  A    between atoms: C_28  and  C_29 
REMARK    8  A    between atoms: C_33  and  C_34 
REMARK    9  A    between atoms: C_34  and  O_35 
ROOT
ATOM      1  C   UNL d   1     -18.947  26.474  24.696  0.00  0.00     0.087 A 
ATOM      2  C   UNL d   1     -18.166  26.806  25.789  0.00  0.00     0.073 A 
ATOM      3  C   UNL d   1     -18.697  26.738  27.069  0.00  0.00     0.104 A 
ATOM      4  C   UNL d   1     -20.022  26.348  27.260  0.00  0.00     0.146 A 
ATOM      5  F   UNL d   1     -20.534  26.289  28.510  0.00  0.00    -0.204 F 
ATOM      6  C   UNL d   1     -20.810  26.020  26.180  0.00  0.00     0.064 A 
ATOM      7  C   UNL d   1     -20.280  26.079  24.886  0.00  0.00     0.068 A 
ENDROOT
BRANCH   7   8
ATOM      8  C   UNL d   1     -21.119  25.730  23.728  0.00  0.00     0.259 C 
ATOM      9  O   UNL d   1     -22.029  26.462  23.392  0.00  0.00    -0.267 OA
ATOM     10  N   UNL d   1     -20.877  24.597  23.037  0.00  0.00    -0.322 N 
ATOM     11  H   UNL d   1     -20.192  23.982  23.341  0.00  0.00     0.169 HD
BRANCH  10  12
ATOM     12  C   UNL d   1     -21.613  24.311  21.883  0.00  0.00     0.044 A 
ATOM     13  C   UNL d   1     -22.707  23.458  21.950  0.00  0.00     0.007 A 
ATOM     14  C   UNL d   1     -23.435  23.182  20.809  0.00  0.00     0.058 A 
ATOM     15  C   UNL d   1     -23.070  23.744  19.600  0.00  0.00     0.017 A 
ATOM     16  C   UNL d   1     -21.977  24.590  19.530  0.00  0.00     0.003 A 
ATOM     17  C   UNL d   1     -21.249  24.875  20.668  0.00  0.00     0.030 A 
BRANCH  13  18
ATOM     18  C   UNL d   1     -23.102  22.839  23.266  0.00  0.00     0.206 C 
BRANCH  18  19
ATOM     19  O   UNL d   1     -23.782  23.810  24.063  0.00  0.00    -0.396 OA
ATOM     20  H   UNL d   1     -23.628  23.717  25.014  0.00  0.00     0.209 HD
ENDBRANCH  18  19
ENDBRANCH  13  18
BRANCH  14  21
ATOM     21  C   UNL d   1     -24.626  22.260  20.881  0.00  0.00     0.418 C 
ATOM     22  F   UNL d   1     -25.507  22.712  21.868  0.00  0.00    -0.166 F 
ATOM     23  F   UNL d   1     -25.278  22.244  19.644  0.00  0.00    -0.166 F 
ATOM     24  F   UNL d   1     -24.194  20.967  21.198  0.00  0.00    -0.166 F 
ENDBRANCH  14  21
ENDBRANCH  10  12
ENDBRANCH   7   8
BRANCH   1  25
ATOM     25  O   UNL d   1     -18.427  26.533  23.444  0.00  0.00    -0.345 OA
BRANCH  25  26
ATOM     26  C   UNL d   1     -17.015  26.358  23.320  0.00  0.00     0.129 C 
ATOM     27  C   UNL d   1     -16.727  25.105  22.490  0.00  0.00     0.040 C 
BRANCH  26  28
ATOM     28  C   UNL d   1     -16.408  27.579  22.627  0.00  0.00     0.015 C 
ATOM     29  C   UNL d   1     -16.188  28.691  23.654  0.00  0.00     0.007 C 
ATOM     30  C   UNL d   1     -15.580  29.913  22.962  0.00  0.00     0.000 C 
ATOM     31  C   UNL d   1     -14.241  29.529  22.332  0.00  0.00     0.000 C 
ATOM     32  C   UNL d   1     -14.461  28.417  21.304  0.00  0.00     0.000 C 
ATOM     33  C   UNL d   1     -15.067  27.194  21.997  0.00  0.00     0.007 C 
ENDBRANCH  26  28
ENDBRANCH  25  26
ENDBRANCH   1  25
BRANCH   3  34
ATOM     34  N   UNL d   1     -17.903  27.069  28.171  0.00  0.00    -0.178 N 
ATOM     35  C   UNL d   1     -17.790  28.290  28.738  0.00  0.00     0.351 A 
ATOM     36  N   UNL d   1     -16.954  28.171  29.783  0.00  0.00    -0.284 N 
ATOM     37  O   UNL d   1     -18.344  29.310  28.370  0.00  0.00    -0.244 OA
ATOM     38  C   UNL d   1     -16.511  26.865  29.838  0.00  0.00     0.131 A 
ATOM     39  C   UNL d   1     -16.567  29.214  30.739  0.00  0.00     0.135 C 
ATOM     40  N   UNL d   1     -17.073  26.195  28.890  0.00  0.00    -0.149 NA
ATOM     41  C   UNL d   1     -15.523  26.356  30.861  0.00  0.00     0.081 C 
ATOM     42  C   UNL d   1     -15.484  27.360  32.022  0.00  0.00     0.009 C 
ATOM     43  C   UNL d   1     -15.286  28.770  31.456  0.00  0.00     0.021 C 
ENDBRANCH   3  34
TORSDOF 9
ENDMDL
