MODEL 1
REMARK VINA RESULT:     -11.2      0.000      0.000
REMARK  4 active torsions:
REMARK  status: ('A' for Active; 'I' for Inactive)
REMARK    1  A    between atoms: C_2  and  O_3 
REMARK    2  A    between atoms: C_2  and  C_4 
REMARK    3  A    between atoms: C_10  and  C_11 
REMARK    4  A    between atoms: C_14  and  C_15 
ROOT
ATOM      1  C   UNL d   1     -32.513  21.691  22.800  0.00  0.00     0.084 A 
ATOM      2  C   UNL d   1     -33.470  21.223  23.694  0.00  0.00     0.024 A 
ATOM      3  C   UNL d   1     -33.080  20.870  24.988  0.00  0.00     0.019 A 
ATOM      4  C   UNL d   1     -31.792  20.974  25.385  0.00  0.00     0.098 A 
ATOM      5  N   UNL d   1     -30.818  21.426  24.546  0.00  0.00    -0.314 N 
ATOM      6  C   UNL d   1     -29.474  21.617  24.710  0.00  0.00     0.130 A 
ATOM      7  C   UNL d   1     -28.991  22.092  23.529  0.00  0.00     0.085 A 
ATOM      8  N   UNL d   1     -30.016  22.190  22.664  0.00  0.00    -0.228 NA
ATOM      9  C   UNL d   1     -31.124  21.793  23.259  0.00  0.00     0.151 A 
ENDROOT
BRANCH   7  10
ATOM     10  C   UNL d   1     -27.579  22.447  23.247  0.00  0.00    -0.006 A 
ATOM     11  C   UNL d   1     -26.936  23.413  24.020  0.00  0.00     0.014 A 
ATOM     12  C   UNL d   1     -25.624  23.743  23.759  0.00  0.00     0.013 A 
ATOM     13  C   UNL d   1     -24.940  23.111  22.721  0.00  0.00    -0.026 A 
ATOM     14  C   UNL d   1     -25.583  22.144  21.948  0.00  0.00     0.013 A 
ATOM     15  C   UNL d   1     -26.893  21.810  22.213  0.00  0.00     0.014 A 
BRANCH  13  16
ATOM     16  C   UNL d   1     -23.528  23.465  22.439  0.00  0.00    -0.026 A 
ATOM     17  C   UNL d   1     -22.562  23.343  23.436  0.00  0.00     0.012 A 
ATOM     18  C   UNL d   1     -21.250  23.675  23.167  0.00  0.00     0.001 A 
ATOM     19  C   UNL d   1     -20.892  24.128  21.910  0.00  0.00     0.000 A 
ATOM     20  C   UNL d   1     -21.846  24.250  20.915  0.00  0.00     0.001 A 
ATOM     21  C   UNL d   1     -23.160  23.917  21.172  0.00  0.00     0.012 A 
ENDBRANCH  13  16
ENDBRANCH   7  10
BRANCH   1  22
ATOM     22  C   UNL d   1     -32.885  22.073  21.430  0.00  0.00     0.180 C 
ATOM     23  O   UNL d   1     -34.030  22.393  21.179  0.00  0.00    -0.646 OA
BRANCH  22  24
ATOM     24  O   UNL d   1     -31.956  22.070  20.453  0.00  0.00    -0.773 OA
ATOM     25  H   UNL d   1     -31.998  22.787  19.805  0.00  0.00     0.167 HD
ENDBRANCH  22  24
ENDBRANCH   1  22
TORSDOF 4
ENDMDL
