MODEL 1
REMARK VINA RESULT:      -9.5      0.000      0.000
REMARK  8 active torsions:
REMARK  status: ('A' for Active; 'I' for Inactive)
REMARK    1  A    between atoms: C_2  and  C_4 
REMARK    2  A    between atoms: C_4  and  C_5 
REMARK    3  A    between atoms: C_5  and  O_7 
REMARK    4  A    between atoms: O_7  and  C_8 
REMARK    5  A    between atoms: C_10  and  N_11 
REMARK    6  A    between atoms: C_13  and  C_14 
REMARK    7  A    between atoms: C_24  and  C_25 
REMARK       I    between atoms: C_25  and  N_27 
REMARK    8  A    between atoms: N_27  and  C_28 
ROOT
ATOM      1  C   UNL d   1     -26.419  22.948  23.339  0.00  0.00     0.087 A 
ATOM      2  C   UNL d   1     -27.791  22.804  23.459  0.00  0.00     0.073 A 
ATOM      3  C   UNL d   1     -28.510  22.145  22.471  0.00  0.00     0.104 A 
ATOM      4  C   UNL d   1     -27.857  21.630  21.353  0.00  0.00     0.146 A 
ATOM      5  F   UNL d   1     -28.562  20.989  20.395  0.00  0.00    -0.204 F 
ATOM      6  C   UNL d   1     -26.493  21.771  21.221  0.00  0.00     0.064 A 
ATOM      7  C   UNL d   1     -25.761  22.434  22.212  0.00  0.00     0.068 A 
ENDROOT
BRANCH   3   8
ATOM      8  N   UNL d   1     -29.893  21.998  22.598  0.00  0.00    -0.178 N 
ATOM      9  C   UNL d   1     -30.561  21.655  23.719  0.00  0.00     0.351 A 
ATOM     10  N   UNL d   1     -31.874  21.628  23.414  0.00  0.00    -0.288 N 
ATOM     11  O   UNL d   1     -30.069  21.415  24.807  0.00  0.00    -0.244 OA
ATOM     12  C   UNL d   1     -32.016  21.950  22.087  0.00  0.00     0.134 A 
ATOM     13  C   UNL d   1     -32.963  21.305  24.339  0.00  0.00     0.162 C 
ATOM     14  N   UNL d   1     -30.844  22.175  21.584  0.00  0.00    -0.149 NA
BRANCH  12  15
ATOM     15  C   UNL d   1     -33.321  22.029  21.338  0.00  0.00     0.049 C 
ATOM     16  C   UNL d   1     -33.905  20.623  21.182  0.00  0.00     0.018 C 
ATOM     17  C   UNL d   1     -34.303  22.905  22.118  0.00  0.00     0.018 C 
ENDBRANCH  12  15
ENDBRANCH   3   8
BRANCH   1  18
ATOM     18  O   UNL d   1     -25.715  23.587  24.307  0.00  0.00    -0.345 OA
BRANCH  18  19
ATOM     19  C   UNL d   1     -25.392  24.960  24.075  0.00  0.00     0.125 C 
ATOM     20  C   UNL d   1     -26.299  25.849  24.929  0.00  0.00     0.040 C 
BRANCH  19  21
ATOM     21  C   UNL d   1     -23.930  25.211  24.451  0.00  0.00     0.035 C 
BRANCH  21  22
ATOM     22  C   UNL d   1     -23.569  26.668  24.154  0.00  0.00    -0.020 C 
ATOM     23  C   UNL d   1     -22.247  27.014  24.841  0.00  0.00     0.009 C 
ATOM     24  C   UNL d   1     -23.426  26.861  22.644  0.00  0.00     0.009 C 
ENDBRANCH  21  22
ENDBRANCH  19  21
ENDBRANCH  18  19
ENDBRANCH   1  18
BRANCH   7  25
ATOM     25  C   UNL d   1     -24.303  22.587  22.076  0.00  0.00     0.260 C 
ATOM     26  O   UNL d   1     -23.570  21.636  22.271  0.00  0.00    -0.267 OA
ATOM     27  N   UNL d   1     -23.780  23.781  21.735  0.00  0.00    -0.307 N 
ATOM     28  H   UNL d   1     -24.355  24.559  21.654  0.00  0.00     0.170 HD
BRANCH  27  29
ATOM     29  C   UNL d   1     -22.412  23.902  21.499  0.00  0.00     0.129 A 
ATOM     30  N   UNL d   1     -21.553  23.641  22.472  0.00  0.00    -0.243 NA
ATOM     31  C   UNL d   1     -20.250  23.742  22.291  0.00  0.00     0.119 A 
ATOM     32  C   UNL d   1     -19.732  24.126  21.070  0.00  0.00     0.019 A 
ATOM     33  C   UNL d   1     -20.600  24.414  20.025  0.00  0.00     0.005 A 
ATOM     34  C   UNL d   1     -21.960  24.294  20.243  0.00  0.00     0.050 A 
ENDBRANCH  27  29
ENDBRANCH   7  25
TORSDOF 8
ENDMDL
