MODEL 1
REMARK VINA RESULT:     -12.7      0.000      0.000
REMARK  6 active torsions:
REMARK  status: ('A' for Active; 'I' for Inactive)
REMARK    1  A    between atoms: C_2  and  O_3 
REMARK    2  A    between atoms: C_2  and  C_4 
REMARK    3  A    between atoms: C_12  and  C_13 
REMARK    4  A    between atoms: C_16  and  C_17 
REMARK    5  A    between atoms: C_20  and  N_21 
REMARK       I    between atoms: N_21  and  C_22 
REMARK    6  A    between atoms: C_22  and  C_24 
ROOT
ATOM      1  C   UNL d   1     -27.088  22.759  22.923  0.00  0.00     0.049 A 
ATOM      2  C   UNL d   1     -26.545  23.789  23.695  0.00  0.00     0.019 A 
ATOM      3  C   UNL d   1     -25.206  24.090  23.596  0.00  0.00     0.013 A 
ATOM      4  C   UNL d   1     -24.391  23.375  22.717  0.00  0.00    -0.020 A 
ATOM      5  C   UNL d   1     -24.930  22.346  21.945  0.00  0.00     0.055 A 
ATOM      6  C   UNL d   1     -26.271  22.038  22.045  0.00  0.00     0.131 A 
ATOM      7  F   UNL d   1     -26.793  21.042  21.297  0.00  0.00    -0.205 F 
ENDROOT
BRANCH   1   8
ATOM      8  C   UNL d   1     -28.523  22.431  23.033  0.00  0.00     0.142 A 
ATOM      9  N   UNL d   1     -29.452  22.619  22.046  0.00  0.00    -0.338 N 
ATOM     10  C   UNL d   1     -30.667  22.186  22.546  0.00  0.00     0.067 A 
ATOM     11  H   UNL d   1     -29.290  22.988  21.164  0.00  0.00     0.167 HD
ATOM     12  C   UNL d   1     -31.951  22.127  22.027  0.00  0.00     0.074 A 
ATOM     13  C   UNL d   1     -30.415  21.739  23.855  0.00  0.00     0.103 A 
ATOM     14  C   UNL d   1     -32.989  21.628  22.794  0.00  0.00     0.119 A 
ATOM     15  C   UNL d   1     -32.762  21.182  24.084  0.00  0.00     0.063 A 
ATOM     16  F   UNL d   1     -34.237  21.575  22.278  0.00  0.00    -0.206 F 
ATOM     17  C   UNL d   1     -31.480  21.232  24.630  0.00  0.00     0.071 A 
ATOM     18  N   UNL d   1     -29.101  21.907  24.089  0.00  0.00    -0.227 NA
BRANCH  17  19
ATOM     19  C   UNL d   1     -31.239  20.757  26.002  0.00  0.00     0.178 C 
ATOM     20  O   UNL d   1     -31.768  19.736  26.393  0.00  0.00    -0.646 OA
BRANCH  19  21
ATOM     21  O   UNL d   1     -30.430  21.455  26.824  0.00  0.00    -0.773 OA
ATOM     22  H   UNL d   1     -30.468  22.418  26.765  0.00  0.00     0.167 HD
ENDBRANCH  19  21
ENDBRANCH  17  19
ENDBRANCH   1   8
BRANCH   4  23
ATOM     23  C   UNL d   1     -22.950  23.705  22.610  0.00  0.00     0.013 A 
ATOM     24  C   UNL d   1     -22.471  24.388  21.489  0.00  0.00     0.129 A 
ATOM     25  C   UNL d   1     -21.126  24.688  21.390  0.00  0.00     0.072 A 
ATOM     26  F   UNL d   1     -23.319  24.748  20.502  0.00  0.00    -0.205 F 
ATOM     27  C   UNL d   1     -20.254  24.321  22.408  0.00  0.00     0.037 A 
ATOM     28  C   UNL d   1     -20.731  23.641  23.524  0.00  0.00     0.030 A 
ATOM     29  C   UNL d   1     -22.070  23.334  23.626  0.00  0.00     0.017 A 
BRANCH  27  30
ATOM     30  N   UNL d   1     -18.895  24.630  22.307  0.00  0.00    -0.327 N 
ATOM     31  C   UNL d   1     -18.370  25.614  23.065  0.00  0.00     0.226 C 
ATOM     32  O   UNL d   1     -19.054  26.167  23.900  0.00  0.00    -0.273 OA
ATOM     33  H   UNL d   1     -18.330  24.137  21.693  0.00  0.00     0.169 HD
BRANCH  31  34
ATOM     34  C   UNL d   1     -16.934  26.027  22.872  0.00  0.00     0.078 A 
ATOM     35  C   UNL d   1     -16.648  27.518  22.680  0.00  0.00     0.015 A 
ATOM     36  C   UNL d   1     -16.274  26.830  23.994  0.00  0.00     0.015 A 
ENDBRANCH  31  34
ENDBRANCH  27  30
ENDBRANCH   4  23
TORSDOF 6
ENDMDL
