MODEL 1
REMARK VINA RESULT:     -10.2      0.000      0.000
REMARK  4 active torsions:
REMARK  status: ('A' for Active; 'I' for Inactive)
REMARK    1  A    between atoms: C_2  and  C_4 
REMARK    2  A    between atoms: C_4  and  C_7 
REMARK       I    between atoms: C_7  and  N_9 
REMARK    3  A    between atoms: N_9  and  C_10 
REMARK    4  A    between atoms: C_13  and  C_14 
ROOT
ATOM      1  C   UNL d   1     -31.988  21.300  24.955  0.00  0.00     0.253 C 
ATOM      2  C   UNL d   1     -32.761  20.708  23.851  0.00  0.00     0.081 C 
ATOM      3  N   UNL d   1     -33.357  20.250  22.999  0.00  0.00    -0.196 NA
ENDROOT
BRANCH   1   4
ATOM      4  C   UNL d   1     -31.679  20.238  25.978  0.00  0.00     0.149 C 
ATOM      5  C   UNL d   1     -32.260  18.855  25.826  0.00  0.00     0.093 C 
ATOM      6  O   UNL d   1     -30.968  20.493  26.919  0.00  0.00    -0.296 OA
ENDBRANCH   1   4
BRANCH   1   7
ATOM      7  C   UNL d   1     -30.700  21.869  24.417  0.00  0.00     0.247 C 
ATOM      8  O   UNL d   1     -30.721  22.849  23.703  0.00  0.00    -0.271 OA
ATOM      9  N   UNL d   1     -29.525  21.288  24.731  0.00  0.00    -0.326 N 
ATOM     10  H   UNL d   1     -29.511  20.466  25.246  0.00  0.00     0.169 HD
BRANCH   9  11
ATOM     11  C   UNL d   1     -28.324  21.869  24.313  0.00  0.00     0.036 A 
ATOM     12  C   UNL d   1     -27.884  21.689  23.007  0.00  0.00     0.054 A 
ATOM     13  C   UNL d   1     -26.698  22.262  22.592  0.00  0.00     0.047 A 
ATOM     14  C   UNL d   1     -25.943  23.023  23.485  0.00  0.00    -0.002 A 
ATOM     15 CL   UNL d   1     -26.147  22.036  20.962  0.00  0.00    -0.083 Cl
ATOM     16  C   UNL d   1     -26.391  23.207  24.793  0.00  0.00     0.016 A 
ATOM     17  C   UNL d   1     -27.572  22.628  25.203  0.00  0.00     0.030 A 
BRANCH  14  18
ATOM     18  C   UNL d   1     -24.669  23.641  23.043  0.00  0.00    -0.003 A 
ATOM     19  C   UNL d   1     -24.424  24.991  23.287  0.00  0.00     0.045 A 
ATOM     20  C   UNL d   1     -23.236  25.560  22.873  0.00  0.00     0.024 A 
ATOM     21 CL   UNL d   1     -25.610  25.955  24.111  0.00  0.00    -0.083 Cl
ATOM     22  C   UNL d   1     -22.291  24.794  22.216  0.00  0.00     0.002 A 
ATOM     23  C   UNL d   1     -22.529  23.453  21.971  0.00  0.00     0.001 A 
ATOM     24  C   UNL d   1     -23.711  22.872  22.384  0.00  0.00     0.014 A 
ENDBRANCH  14  18
ENDBRANCH   9  11
ENDBRANCH   1   7
TORSDOF 4
ENDMDL
