MODEL 1
REMARK VINA RESULT:      -9.3      0.000      0.000
REMARK  9 active torsions:
REMARK  status: ('A' for Active; 'I' for Inactive)
REMARK    1  A    between atoms: C_2  and  C_3 
REMARK    2  A    between atoms: C_3  and  C_4 
REMARK    3  A    between atoms: C_4  and  O_6 
REMARK    4  A    between atoms: O_6  and  C_7 
REMARK    5  A    between atoms: C_9  and  N_10 
REMARK    6  A    between atoms: C_12  and  C_13 
REMARK    7  A    between atoms: C_22  and  C_23 
REMARK       I    between atoms: C_23  and  N_25 
REMARK    8  A    between atoms: N_25  and  C_26 
REMARK    9  A    between atoms: C_30  and  N_31 
ROOT
ATOM      1  C   UNL d   1     -24.193  23.754  22.811  0.00  0.00     0.087 A 
ATOM      2  C   UNL d   1     -25.444  23.164  22.877  0.00  0.00     0.073 A 
ATOM      3  C   UNL d   1     -26.397  23.653  23.758  0.00  0.00     0.104 A 
ATOM      4  C   UNL d   1     -26.100  24.739  24.583  0.00  0.00     0.146 A 
ATOM      5  F   UNL d   1     -27.033  25.209  25.440  0.00  0.00    -0.204 F 
ATOM      6  C   UNL d   1     -24.860  25.333  24.525  0.00  0.00     0.064 A 
ATOM      7  C   UNL d   1     -23.890  24.843  23.643  0.00  0.00     0.068 A 
ENDROOT
BRANCH   7   8
ATOM      8  C   UNL d   1     -22.560  25.471  23.582  0.00  0.00     0.259 C 
ATOM      9  O   UNL d   1     -22.428  26.566  23.071  0.00  0.00    -0.267 OA
ATOM     10  N   UNL d   1     -21.489  24.832  24.093  0.00  0.00    -0.322 N 
ATOM     11  H   UNL d   1     -21.581  23.929  24.435  0.00  0.00     0.169 HD
BRANCH  10  12
ATOM     12  C   UNL d   1     -20.245  25.469  24.129  0.00  0.00     0.043 A 
ATOM     13  C   UNL d   1     -19.273  25.150  23.192  0.00  0.00    -0.009 A 
ATOM     14  C   UNL d   1     -18.042  25.789  23.227  0.00  0.00     0.034 A 
ATOM     15  C   UNL d   1     -19.556  24.114  22.133  0.00  0.00     0.053 C 
ATOM     16  C   UNL d   1     -17.782  26.737  24.208  0.00  0.00     0.029 A 
ATOM     17  C   UNL d   1     -18.750  27.049  25.145  0.00  0.00     0.004 A 
ATOM     18  C   UNL d   1     -19.978  26.419  25.107  0.00  0.00     0.030 A 
BRANCH  14  19
ATOM     19  N   UNL d   1     -17.063  25.475  22.282  0.00  0.00    -0.399 N 
ATOM     20  H   UNL d   1     -17.298  24.964  21.491  0.00  0.00     0.156 HD
ATOM     21  H   UNL d   1     -16.148  25.766  22.416  0.00  0.00     0.156 HD
ENDBRANCH  14  19
ENDBRANCH  10  12
ENDBRANCH   7   8
BRANCH   1  22
ATOM     22  O   UNL d   1     -23.260  23.277  21.948  0.00  0.00    -0.345 OA
BRANCH  22  23
ATOM     23  C   UNL d   1     -23.402  23.641  20.574  0.00  0.00     0.124 C 
ATOM     24  C   UNL d   1     -22.108  24.293  20.083  0.00  0.00     0.040 C 
BRANCH  23  25
ATOM     25  C   UNL d   1     -23.689  22.389  19.742  0.00  0.00     0.032 C 
BRANCH  25  26
ATOM     26  C   UNL d   1     -25.136  22.428  19.247  0.00  0.00    -0.002 C 
ATOM     27  C   UNL d   1     -26.036  21.697  20.244  0.00  0.00     0.005 C 
ENDBRANCH  25  26
ENDBRANCH  23  25
ENDBRANCH  22  23
ENDBRANCH   1  22
BRANCH   3  28
ATOM     28  N   UNL d   1     -27.658  23.056  23.821  0.00  0.00    -0.178 N 
ATOM     29  C   UNL d   1     -28.145  22.321  24.842  0.00  0.00     0.351 A 
ATOM     30  N   UNL d   1     -29.392  21.936  24.505  0.00  0.00    -0.289 N 
ATOM     31  O   UNL d   1     -27.564  22.054  25.880  0.00  0.00    -0.244 OA
ATOM     32  C   UNL d   1     -29.674  22.434  23.256  0.00  0.00     0.130 A 
ATOM     33  C   UNL d   1     -30.290  21.122  25.327  0.00  0.00     0.162 C 
ATOM     34  N   UNL d   1     -28.650  23.104  22.833  0.00  0.00    -0.149 NA
BRANCH  32  35
ATOM     35  C   UNL d   1     -30.963  22.232  22.502  0.00  0.00     0.076 C 
ATOM     36  C   UNL d   1     -30.696  22.331  20.999  0.00  0.00     0.013 C 
ENDBRANCH  32  35
ENDBRANCH   3  28
TORSDOF 9
ENDMDL
