MODEL 1
REMARK VINA RESULT:     -10.7      0.000      0.000
REMARK  6 active torsions:
REMARK  status: ('A' for Active; 'I' for Inactive)
REMARK    1  A    between atoms: C_2  and  O_3 
REMARK    2  A    between atoms: C_2  and  C_34 
REMARK    3  A    between atoms: O_3  and  C_4 
REMARK    4  A    between atoms: C_6  and  N_7 
REMARK    5  A    between atoms: C_21  and  C_22 
REMARK       I    between atoms: C_22  and  N_24 
REMARK    6  A    between atoms: N_24  and  C_25 
ROOT
ATOM      1  C   UNL d   1     -24.503  23.391  22.505  0.00  0.00     0.087 A 
ATOM      2  C   UNL d   1     -25.755  22.810  22.614  0.00  0.00     0.073 A 
ATOM      3  C   UNL d   1     -26.657  23.275  23.561  0.00  0.00     0.104 A 
ATOM      4  C   UNL d   1     -26.307  24.329  24.405  0.00  0.00     0.146 A 
ATOM      5  F   UNL d   1     -27.190  24.777  25.324  0.00  0.00    -0.204 F 
ATOM      6  C   UNL d   1     -25.062  24.909  24.309  0.00  0.00     0.064 A 
ATOM      7  C   UNL d   1     -24.149  24.450  23.353  0.00  0.00     0.068 A 
ENDROOT
BRANCH   7   8
ATOM      8  C   UNL d   1     -22.819  25.073  23.242  0.00  0.00     0.259 C 
ATOM      9  O   UNL d   1     -22.684  26.110  22.622  0.00  0.00    -0.267 OA
ATOM     10  N   UNL d   1     -21.753  24.494  23.828  0.00  0.00    -0.319 N 
ATOM     11  H   UNL d   1     -21.844  23.626  24.252  0.00  0.00     0.169 HD
BRANCH  10  12
ATOM     12  C   UNL d   1     -20.512  25.144  23.825  0.00  0.00     0.099 A 
ATOM     13  C   UNL d   1     -19.542  24.788  22.896  0.00  0.00     0.183 A 
ATOM     14  C   UNL d   1     -18.318  25.433  22.894  0.00  0.00     0.157 A 
ATOM     15  F   UNL d   1     -19.794  23.813  21.995  0.00  0.00    -0.200 F 
ATOM     16  C   UNL d   1     -18.060  26.432  23.817  0.00  0.00     0.047 A 
ATOM     17  F   UNL d   1     -17.372  25.088  21.993  0.00  0.00    -0.203 F 
ATOM     18  C   UNL d   1     -19.026  26.792  24.739  0.00  0.00     0.029 A 
ATOM     19  C   UNL d   1     -20.249  26.148  24.749  0.00  0.00     0.064 A 
ATOM     20 CL   UNL d   1     -21.458  26.596  25.910  0.00  0.00    -0.082 Cl
ENDBRANCH  10  12
ENDBRANCH   7   8
BRANCH   1  21
ATOM     21  O   UNL d   1     -23.621  22.937  21.579  0.00  0.00    -0.336 OA
BRANCH  21  22
ATOM     22  C   UNL d   1     -23.735  23.469  20.258  0.00  0.00     0.232 C 
ATOM     23  C   UNL d   1     -22.348  23.858  19.743  0.00  0.00     0.049 C 
BRANCH  22  24
ATOM     24  C   UNL d   1     -24.345  22.414  19.333  0.00  0.00     0.413 C 
ATOM     25  F   UNL d   1     -25.614  22.058  19.803  0.00  0.00    -0.168 F 
ATOM     26  F   UNL d   1     -24.457  22.936  18.040  0.00  0.00    -0.168 F 
ATOM     27  F   UNL d   1     -23.522  21.283  19.310  0.00  0.00    -0.168 F 
ENDBRANCH  22  24
ENDBRANCH  21  22
ENDBRANCH   1  21
BRANCH   3  28
ATOM     28  N   UNL d   1     -27.918  22.687  23.668  0.00  0.00    -0.178 N 
ATOM     29  C   UNL d   1     -28.364  21.928  24.695  0.00  0.00     0.351 A 
ATOM     30  N   UNL d   1     -29.620  21.569  24.410  0.00  0.00    -0.282 N 
ATOM     31  O   UNL d   1     -27.738  21.630  25.696  0.00  0.00    -0.244 OA
ATOM     32  C   UNL d   1     -29.957  22.103  23.173  0.00  0.00     0.155 A 
ATOM     33  C   UNL d   1     -30.558  20.753  25.193  0.00  0.00     0.137 C 
ATOM     34  N   UNL d   1     -28.957  22.769  22.725  0.00  0.00    -0.147 NA
ATOM     35  C   UNL d   1     -31.315  21.875  22.541  0.00  0.00     0.248 C 
ATOM     36  O   UNL d   1     -32.289  22.520  23.369  0.00  0.00    -0.384 OA
ATOM     37  C   UNL d   1     -32.737  21.795  24.494  0.00  0.00     0.169 C 
ATOM     38  C   UNL d   1     -31.726  21.659  25.608  0.00  0.00     0.046 C 
ENDBRANCH   3  28
TORSDOF 6
ENDMDL
