MODEL 1
REMARK VINA RESULT:     -11.2      0.000      0.000
REMARK  8 active torsions:
REMARK  status: ('A' for Active; 'I' for Inactive)
REMARK    1  A    between atoms: C_2  and  O_3 
REMARK    2  A    between atoms: C_2  and  C_4 
REMARK    3  A    between atoms: C_5  and  C_6 
REMARK       I    between atoms: C_6  and  N_8 
REMARK    4  A    between atoms: N_8  and  C_9 
REMARK    5  A    between atoms: C_12  and  C_13 
REMARK    6  A    between atoms: C_17  and  O_18 
REMARK    7  A    between atoms: O_18  and  C_19 
REMARK    8  A    between atoms: C_25  and  N_26 
ROOT
ATOM      1  C   UNL d   1     -25.751  23.005  23.599  0.00  0.00     0.068 A 
ATOM      2  C   UNL d   1     -26.456  23.459  24.707  0.00  0.00     0.033 A 
ATOM      3  C   UNL d   1     -27.779  23.110  24.873  0.00  0.00     0.014 A 
ATOM      4  C   UNL d   1     -28.410  22.302  23.928  0.00  0.00    -0.023 A 
ATOM      5  C   UNL d   1     -27.701  21.848  22.818  0.00  0.00     0.050 A 
ATOM      6  C   UNL d   1     -26.379  22.204  22.652  0.00  0.00     0.130 A 
ENDROOT
BRANCH   1   7
ATOM      7  N   UNL d   1     -24.410  23.360  23.432  0.00  0.00    -0.321 N 
ATOM      8  C   UNL d   1     -24.067  24.658  23.307  0.00  0.00     0.253 C 
ATOM      9  O   UNL d   1     -24.909  25.525  23.440  0.00  0.00    -0.268 OA
ATOM     10  H   UNL d   1     -23.726  22.673  23.408  0.00  0.00     0.169 HD
BRANCH   8  11
ATOM     11  C   UNL d   1     -22.669  25.027  23.014  0.00  0.00     0.023 C 
ATOM     12  C   UNL d   1     -22.090  24.926  21.809  0.00  0.00     0.027 C 
ATOM     13  C   UNL d   1     -20.653  25.390  21.872  0.00  0.00     0.046 C 
ATOM     14  C   UNL d   1     -20.301  25.391  23.377  0.00  0.00     0.010 C 
ATOM     15  C   UNL d   1     -21.693  25.576  24.028  0.00  0.00     0.045 C 
BRANCH  12  16
ATOM     16  C   UNL d   1     -22.760  24.432  20.593  0.00  0.00     0.172 C 
ATOM     17  O   UNL d   1     -22.922  25.175  19.644  0.00  0.00    -0.646 OA
BRANCH  16  18
ATOM     18  O   UNL d   1     -23.192  23.157  20.532  0.00  0.00    -0.773 OA
ATOM     19  H   UNL d   1     -24.084  22.980  20.862  0.00  0.00     0.167 HD
ENDBRANCH  16  18
ENDBRANCH  12  16
ENDBRANCH   8  11
ENDBRANCH   1   7
BRANCH   6  20
ATOM     20  N   UNL d   1     -25.627  21.727  21.470  0.00  0.00    -0.113 N 
ATOM     21  O   UNL d   1     -24.617  21.061  21.619  0.00  0.00    -0.532 OA
ATOM     22  O   UNL d   1     -26.017  21.998  20.350  0.00  0.00    -0.532 OA
ENDBRANCH   6  20
BRANCH   4  23
ATOM     23  C   UNL d   1     -29.834  21.926  24.105  0.00  0.00    -0.023 A 
ATOM     24  C   UNL d   1     -30.799  22.412  23.227  0.00  0.00     0.049 A 
ATOM     25  C   UNL d   1     -32.128  22.057  23.398  0.00  0.00     0.079 A 
ATOM     26  C   UNL d   1     -32.493  21.219  24.442  0.00  0.00     0.037 A 
ATOM     27  C   UNL d   1     -31.535  20.736  25.314  0.00  0.00     0.004 A 
ATOM     28  C   UNL d   1     -30.209  21.081  25.148  0.00  0.00     0.012 A 
BRANCH  25  29
ATOM     29  O   UNL d   1     -33.072  22.527  22.543  0.00  0.00    -0.255 OA
BRANCH  29  30
ATOM     30  C   UNL d   1     -33.220  21.841  21.298  0.00  0.00     0.530 C 
ATOM     31  F   UNL d   1     -33.411  20.476  21.538  0.00  0.00    -0.144 F 
ATOM     32  F   UNL d   1     -34.327  22.352  20.611  0.00  0.00    -0.144 F 
ATOM     33  F   UNL d   1     -32.068  22.022  20.525  0.00  0.00    -0.144 F 
ENDBRANCH  29  30
ENDBRANCH  25  29
ENDBRANCH   4  23
TORSDOF 8
ENDMDL
