MODEL 1
REMARK VINA RESULT:     -12.1      0.000      0.000
REMARK  6 active torsions:
REMARK  status: ('A' for Active; 'I' for Inactive)
REMARK    1  A    between atoms: N_2  and  C_4 
REMARK    2  A    between atoms: C_4  and  C_5 
REMARK    3  A    between atoms: C_9  and  C_10 
REMARK    4  A    between atoms: C_15  and  C_16 
REMARK    5  A    between atoms: C_18  and  C_19 
REMARK    6  A    between atoms: C_19  and  O_21 
ROOT
ATOM      1  C   UNL d   1     -24.215  23.501  22.482  0.00  0.00     0.058 A 
ATOM      2  C   UNL d   1     -24.770  22.410  21.810  0.00  0.00     0.170 A 
ATOM      3  F   UNL d   1     -24.023  21.708  20.931  0.00  0.00    -0.202 F 
ATOM      4  C   UNL d   1     -26.082  22.047  22.049  0.00  0.00     0.170 A 
ATOM      5  F   UNL d   1     -26.618  20.988  21.402  0.00  0.00    -0.202 F 
ATOM      6  C   UNL d   1     -26.855  22.776  22.953  0.00  0.00     0.058 A 
ATOM      7  C   UNL d   1     -26.302  23.870  23.621  0.00  0.00     0.170 A 
ATOM      8  F   UNL d   1     -27.050  24.576  24.496  0.00  0.00    -0.202 F 
ATOM      9  C   UNL d   1     -24.989  24.230  23.387  0.00  0.00     0.170 A 
ATOM     10  F   UNL d   1     -24.453  25.290  24.033  0.00  0.00    -0.202 F 
ENDROOT
BRANCH   6  11
ATOM     11  C   UNL d   1     -28.265  22.389  23.205  0.00  0.00    -0.016 A 
ATOM     12  C   UNL d   1     -29.220  22.595  22.219  0.00  0.00     0.048 A 
ATOM     13  C   UNL d   1     -30.551  22.228  22.447  0.00  0.00     0.111 A 
ATOM     14  C   UNL d   1     -30.913  21.663  23.681  0.00  0.00     0.101 A 
ATOM     15  N   UNL d   1     -31.672  22.303  21.688  0.00  0.00    -0.130 NA
ATOM     16  C   UNL d   1     -29.940  21.464  24.676  0.00  0.00     0.069 A 
ATOM     17  N   UNL d   1     -32.259  21.417  23.610  0.00  0.00    -0.253 N 
ATOM     18  C   UNL d   1     -28.621  21.828  24.432  0.00  0.00     0.033 A 
ATOM     19  N   UNL d   1     -32.678  21.838  22.340  0.00  0.00    -0.065 NA
ATOM     20  C   UNL d   1     -33.097  20.829  24.658  0.00  0.00     0.182 C 
BRANCH  16  21
ATOM     21  C   UNL d   1     -30.317  20.871  25.972  0.00  0.00     0.178 C 
ATOM     22  O   UNL d   1     -30.542  21.589  26.926  0.00  0.00    -0.646 OA
BRANCH  21  23
ATOM     23  O   UNL d   1     -30.411  19.533  26.099  0.00  0.00    -0.773 OA
ATOM     24  H   UNL d   1     -30.212  19.002  25.315  0.00  0.00     0.167 HD
ENDBRANCH  21  23
ENDBRANCH  16  21
ENDBRANCH   6  11
BRANCH   1  25
ATOM     25  C   UNL d   1     -22.806  23.887  22.230  0.00  0.00    -0.019 A 
ATOM     26  C   UNL d   1     -22.366  24.117  20.928  0.00  0.00     0.012 A 
ATOM     27  C   UNL d   1     -21.053  24.477  20.699  0.00  0.00     0.001 A 
ATOM     28  C   UNL d   1     -20.176  24.613  21.760  0.00  0.00     0.009 A 
ATOM     29  C   UNL d   1     -20.606  24.381  23.054  0.00  0.00    -0.029 A 
ATOM     30  C   UNL d   1     -21.916  24.021  23.295  0.00  0.00     0.021 A 
BRANCH  29  31
ATOM     31  C   UNL d   1     -19.643  24.526  24.205  0.00  0.00     0.309 C 
BRANCH  31  32
ATOM     32  N   UNL d   1     -19.122  25.898  24.238  0.00  0.00     0.084 N 
ATOM     33  C   UNL d   1     -19.976  26.766  25.060  0.00  0.00     0.309 C 
ATOM     34  C   UNL d   1     -17.733  25.924  24.714  0.00  0.00     0.309 C 
ENDBRANCH  31  32
ENDBRANCH  29  31
ENDBRANCH   1  25
TORSDOF 6
ENDMDL
