MODEL 1
REMARK VINA RESULT:     -10.5      0.000      0.000
REMARK  6 active torsions:
REMARK  status: ('A' for Active; 'I' for Inactive)
REMARK    1  A    between atoms: C_2  and  O_3 
REMARK    2  A    between atoms: C_2  and  C_32 
REMARK    3  A    between atoms: O_3  and  C_4 
REMARK    4  A    between atoms: C_6  and  N_7 
REMARK    5  A    between atoms: C_20  and  C_21 
REMARK       I    between atoms: C_21  and  N_23 
REMARK    6  A    between atoms: N_23  and  C_24 
ROOT
ATOM      1  C   UNL d   1     -24.696  23.393  22.671  0.00  0.00     0.087 A 
ATOM      2  C   UNL d   1     -25.954  22.841  22.842  0.00  0.00     0.073 A 
ATOM      3  C   UNL d   1     -26.812  23.355  23.805  0.00  0.00     0.105 A 
ATOM      4  C   UNL d   1     -26.409  24.422  24.608  0.00  0.00     0.146 A 
ATOM      5  F   UNL d   1     -27.249  24.915  25.544  0.00  0.00    -0.204 F 
ATOM      6  C   UNL d   1     -25.157  24.972  24.450  0.00  0.00     0.064 A 
ATOM      7  C   UNL d   1     -24.287  24.462  23.481  0.00  0.00     0.068 A 
ENDROOT
BRANCH   7   8
ATOM      8  C   UNL d   1     -22.947  25.048  23.309  0.00  0.00     0.259 C 
ATOM      9  O   UNL d   1     -22.803  26.048  22.631  0.00  0.00    -0.267 OA
ATOM     10  N   UNL d   1     -21.879  24.477  23.903  0.00  0.00    -0.318 N 
ATOM     11  H   UNL d   1     -22.001  23.709  24.482  0.00  0.00     0.169 HD
BRANCH  10  12
ATOM     12  C   UNL d   1     -20.596  24.993  23.683  0.00  0.00     0.113 A 
ATOM     13  C   UNL d   1     -20.105  26.009  24.495  0.00  0.00     0.146 A 
ATOM     14  C   UNL d   1     -18.836  26.516  24.276  0.00  0.00     0.045 A 
ATOM     15  F   UNL d   1     -20.865  26.500  25.499  0.00  0.00    -0.204 F 
ATOM     16  C   UNL d   1     -18.058  26.013  23.250  0.00  0.00     0.006 A 
ATOM     17  C   UNL d   1     -18.543  25.004  22.440  0.00  0.00     0.045 A 
ATOM     18  C   UNL d   1     -19.807  24.487  22.655  0.00  0.00     0.146 A 
ATOM     19  F   UNL d   1     -20.278  23.497  21.867  0.00  0.00    -0.204 F 
ENDBRANCH  10  12
ENDBRANCH   7   8
BRANCH   1  20
ATOM     20  O   UNL d   1     -23.858  22.896  21.726  0.00  0.00    -0.336 OA
BRANCH  20  21
ATOM     21  C   UNL d   1     -24.008  23.399  20.396  0.00  0.00     0.232 C 
ATOM     22  C   UNL d   1     -22.649  23.864  19.869  0.00  0.00     0.049 C 
BRANCH  21  23
ATOM     23  C   UNL d   1     -24.555  22.292  19.492  0.00  0.00     0.413 C 
ATOM     24  F   UNL d   1     -25.863  21.979  19.875  0.00  0.00    -0.168 F 
ATOM     25  F   UNL d   1     -24.551  22.733  18.163  0.00  0.00    -0.168 F 
ATOM     26  F   UNL d   1     -23.749  21.155  19.608  0.00  0.00    -0.168 F 
ENDBRANCH  21  23
ENDBRANCH  20  21
ENDBRANCH   1  20
BRANCH   3  27
ATOM     27  N   UNL d   1     -28.083  22.800  23.970  0.00  0.00    -0.175 N 
ATOM     28  C   UNL d   1     -28.489  22.024  24.999  0.00  0.00     0.353 A 
ATOM     29  N   UNL d   1     -29.778  21.724  24.790  0.00  0.00    -0.261 N 
ATOM     30  O   UNL d   1     -27.809  21.667  25.945  0.00  0.00    -0.244 OA
ATOM     31  C   UNL d   1     -30.170  22.288  23.590  0.00  0.00     0.270 A 
ATOM     32  C   UNL d   1     -30.680  20.945  25.648  0.00  0.00     0.139 C 
ATOM     33  N   UNL d   1     -29.169  22.939  23.094  0.00  0.00    -0.118 NA
ATOM     34  O   UNL d   1     -31.419  22.137  23.072  0.00  0.00    -0.319 OA
ATOM     35  C   UNL d   1     -32.412  21.692  24.007  0.00  0.00     0.180 C 
ATOM     36  C   UNL d   1     -31.868  20.488  24.786  0.00  0.00     0.047 C 
ENDBRANCH   3  27
TORSDOF 6
ENDMDL
