MODEL 1
REMARK VINA RESULT:     -10.4      0.000      0.000
REMARK  6 active torsions:
REMARK  status: ('A' for Active; 'I' for Inactive)
REMARK    1  A    between atoms: C_2  and  O_3 
REMARK    2  A    between atoms: C_2  and  C_32 
REMARK    3  A    between atoms: O_3  and  C_4 
REMARK    4  A    between atoms: C_6  and  N_7 
REMARK    5  A    between atoms: C_20  and  C_21 
REMARK       I    between atoms: C_21  and  N_23 
REMARK    6  A    between atoms: N_23  and  C_24 
ROOT
ATOM      1  C   UNL d   1     -24.713  23.405  22.721  0.00  0.00     0.087 A 
ATOM      2  C   UNL d   1     -25.971  22.849  22.878  0.00  0.00     0.073 A 
ATOM      3  C   UNL d   1     -26.847  23.367  23.823  0.00  0.00     0.104 A 
ATOM      4  C   UNL d   1     -26.461  24.443  24.622  0.00  0.00     0.146 A 
ATOM      5  F   UNL d   1     -27.318  24.941  25.540  0.00  0.00    -0.204 F 
ATOM      6  C   UNL d   1     -25.210  24.998  24.478  0.00  0.00     0.064 A 
ATOM      7  C   UNL d   1     -24.322  24.483  23.528  0.00  0.00     0.068 A 
ENDROOT
BRANCH   7   8
ATOM      8  C   UNL d   1     -22.983  25.075  23.370  0.00  0.00     0.259 C 
ATOM      9  O   UNL d   1     -22.822  26.030  22.634  0.00  0.00    -0.267 OA
ATOM     10  N   UNL d   1     -21.934  24.558  24.041  0.00  0.00    -0.321 N 
ATOM     11  H   UNL d   1     -22.072  23.836  24.673  0.00  0.00     0.169 HD
BRANCH  10  12
ATOM     12  C   UNL d   1     -20.649  25.069  23.830  0.00  0.00     0.059 A 
ATOM     13  C   UNL d   1     -20.156  26.074  24.655  0.00  0.00     0.060 A 
ATOM     14  C   UNL d   1     -18.885  26.578  24.444  0.00  0.00     0.029 A 
ATOM     15 CL   UNL d   1     -21.133  26.694  25.948  0.00  0.00    -0.082 Cl
ATOM     16  C   UNL d   1     -18.106  26.083  23.415  0.00  0.00     0.044 A 
ATOM     17  C   UNL d   1     -18.594  25.082  22.592  0.00  0.00     0.118 A 
ATOM     18  C   UNL d   1     -19.862  24.570  22.801  0.00  0.00     0.073 A 
ATOM     19  F   UNL d   1     -17.829  24.602  21.588  0.00  0.00    -0.206 F 
ENDBRANCH  10  12
ENDBRANCH   7   8
BRANCH   1  20
ATOM     20  O   UNL d   1     -23.860  22.904  21.793  0.00  0.00    -0.336 OA
BRANCH  20  21
ATOM     21  C   UNL d   1     -23.967  23.421  20.465  0.00  0.00     0.232 C 
ATOM     22  C   UNL d   1     -22.585  23.854  19.973  0.00  0.00     0.049 C 
BRANCH  21  23
ATOM     23  C   UNL d   1     -24.523  22.338  19.539  0.00  0.00     0.413 C 
ATOM     24  F   UNL d   1     -23.697  21.210  19.593  0.00  0.00    -0.168 F 
ATOM     25  F   UNL d   1     -25.814  21.990  19.950  0.00  0.00    -0.168 F 
ATOM     26  F   UNL d   1     -24.565  22.821  18.227  0.00  0.00    -0.168 F 
ENDBRANCH  21  23
ENDBRANCH  20  21
ENDBRANCH   1  20
BRANCH   3  27
ATOM     27  N   UNL d   1     -28.117  22.807  23.975  0.00  0.00    -0.178 N 
ATOM     28  C   UNL d   1     -28.525  22.011  24.990  0.00  0.00     0.351 A 
ATOM     29  N   UNL d   1     -29.814  21.719  24.773  0.00  0.00    -0.280 N 
ATOM     30  O   UNL d   1     -27.847  21.631  25.926  0.00  0.00    -0.244 OA
ATOM     31  C   UNL d   1     -30.201  22.307  23.583  0.00  0.00     0.155 A 
ATOM     32  C   UNL d   1     -30.730  20.932  25.609  0.00  0.00     0.161 C 
ATOM     33  N   UNL d   1     -29.205  22.963  23.101  0.00  0.00    -0.147 NA
ATOM     34  C   UNL d   1     -31.589  22.147  23.007  0.00  0.00     0.248 C 
ATOM     35  O   UNL d   1     -32.441  21.664  24.057  0.00  0.00    -0.382 OA
ATOM     36  C   UNL d   1     -31.924  20.517  24.738  0.00  0.00     0.188 C 
ENDBRANCH   3  27
TORSDOF 6
ENDMDL
