MODEL 1
REMARK VINA RESULT:     -11.9      0.000      0.000
REMARK  4 active torsions:
REMARK  status: ('A' for Active; 'I' for Inactive)
REMARK    1  A    between atoms: C_4  and  C_5 
REMARK    2  A    between atoms: C_5  and  O_7 
REMARK    3  A    between atoms: C_11  and  C_12 
REMARK    4  A    between atoms: C_15  and  C_16 
ROOT
ATOM      1  C   UNL d   1     -33.990  21.675  22.217  0.00  0.00     0.048 C 
ATOM      2  C   UNL d   1     -32.613  21.733  22.828  0.00  0.00    -0.059 A 
ATOM      3  C   UNL d   1     -32.430  21.330  24.139  0.00  0.00     0.027 A 
ATOM      4  C   UNL d   1     -31.162  21.379  24.719  0.00  0.00     0.067 A 
ATOM      5  C   UNL d   1     -30.074  21.841  23.964  0.00  0.00     0.080 A 
ATOM      6  N   UNL d   1     -28.734  22.004  24.224  0.00  0.00    -0.338 N 
ATOM      7  H   UNL d   1     -28.282  21.806  25.059  0.00  0.00     0.167 HD
ATOM      8  C   UNL d   1     -28.156  22.502  23.086  0.00  0.00     0.139 A 
ATOM      9  N   UNL d   1     -29.066  22.640  22.152  0.00  0.00    -0.228 NA
ATOM     10  C   UNL d   1     -30.272  22.249  22.633  0.00  0.00     0.087 A 
ATOM     11  C   UNL d   1     -31.552  22.189  22.076  0.00  0.00     0.040 A 
ENDROOT
BRANCH   8  12
ATOM     12  C   UNL d   1     -26.723  22.828  22.932  0.00  0.00     0.010 A 
ATOM     13  C   UNL d   1     -26.169  23.896  23.642  0.00  0.00     0.016 A 
ATOM     14  C   UNL d   1     -24.833  24.197  23.501  0.00  0.00     0.013 A 
ATOM     15  C   UNL d   1     -24.034  23.440  22.642  0.00  0.00    -0.023 A 
ATOM     16  C   UNL d   1     -24.586  22.373  21.934  0.00  0.00     0.013 A 
ATOM     17  C   UNL d   1     -25.921  22.068  22.077  0.00  0.00     0.016 A 
BRANCH  15  18
ATOM     18  C   UNL d   1     -22.596  23.768  22.488  0.00  0.00     0.013 A 
ATOM     19  C   UNL d   1     -22.123  24.300  21.288  0.00  0.00     0.127 A 
ATOM     20  C   UNL d   1     -20.780  24.597  21.149  0.00  0.00     0.043 A 
ATOM     21  F   UNL d   1     -22.974  24.518  20.262  0.00  0.00    -0.205 F 
ATOM     22  C   UNL d   1     -19.910  24.379  22.202  0.00  0.00     0.003 A 
ATOM     23  C   UNL d   1     -20.375  23.857  23.395  0.00  0.00     0.001 A 
ATOM     24  C   UNL d   1     -21.712  23.551  23.544  0.00  0.00     0.015 A 
ENDBRANCH  15  18
ENDBRANCH   8  12
BRANCH   4  25
ATOM     25  C   UNL d   1     -30.968  20.949  26.115  0.00  0.00     0.178 C 
ATOM     26  O   UNL d   1     -30.306  21.631  26.874  0.00  0.00    -0.646 OA
BRANCH  25  27
ATOM     27  O   UNL d   1     -31.524  19.802  26.552  0.00  0.00    -0.773 OA
ATOM     28  H   UNL d   1     -31.276  19.503  27.436  0.00  0.00     0.167 HD
ENDBRANCH  25  27
ENDBRANCH   4  25
TORSDOF 4
ENDMDL
