MODEL 1
REMARK VINA RESULT:     -10.0      0.000      0.000
REMARK  6 active torsions:
REMARK  status: ('A' for Active; 'I' for Inactive)
REMARK    1  A    between atoms: C_2  and  O_3 
REMARK    2  A    between atoms: C_2  and  C_28 
REMARK    3  A    between atoms: O_3  and  C_4 
REMARK    4  A    between atoms: C_6  and  N_7 
REMARK    5  A    between atoms: C_20  and  C_21 
REMARK       I    between atoms: C_21  and  N_23 
REMARK    6  A    between atoms: N_23  and  C_24 
ROOT
ATOM      1  C   UNL d   1     -24.617  23.497  22.814  0.00  0.00     0.087 A 
ATOM      2  C   UNL d   1     -25.821  22.874  23.091  0.00  0.00     0.073 A 
ATOM      3  C   UNL d   1     -26.696  23.431  24.013  0.00  0.00     0.104 A 
ATOM      4  C   UNL d   1     -26.361  24.613  24.673  0.00  0.00     0.146 A 
ATOM      5  F   UNL d   1     -27.215  25.146  25.574  0.00  0.00    -0.204 F 
ATOM      6  C   UNL d   1     -25.163  25.238  24.410  0.00  0.00     0.064 A 
ATOM      7  C   UNL d   1     -24.278  24.686  23.477  0.00  0.00     0.068 A 
ENDROOT
BRANCH   3   8
ATOM      8  N   UNL d   1     -27.913  22.802  24.286  0.00  0.00    -0.178 N 
ATOM      9  C   UNL d   1     -28.217  22.094  25.395  0.00  0.00     0.351 A 
ATOM     10  N   UNL d   1     -29.491  21.686  25.274  0.00  0.00    -0.284 N 
ATOM     11  O   UNL d   1     -27.473  21.867  26.333  0.00  0.00    -0.244 OA
ATOM     12  C   UNL d   1     -29.970  22.115  24.052  0.00  0.00     0.131 A 
ATOM     13  C   UNL d   1     -30.285  20.934  26.251  0.00  0.00     0.135 C 
ATOM     14  N   UNL d   1     -29.045  22.786  23.456  0.00  0.00    -0.149 NA
ATOM     15  C   UNL d   1     -31.359  21.812  23.542  0.00  0.00     0.081 C 
ATOM     16  C   UNL d   1     -32.223  21.392  24.740  0.00  0.00     0.009 C 
ATOM     17  C   UNL d   1     -31.485  20.309  25.532  0.00  0.00     0.021 C 
ENDBRANCH   3   8
BRANCH   1  18
ATOM     18  O   UNL d   1     -23.763  22.956  21.909  0.00  0.00    -0.336 OA
BRANCH  18  19
ATOM     19  C   UNL d   1     -23.989  23.272  20.535  0.00  0.00     0.232 C 
ATOM     20  C   UNL d   1     -22.666  23.672  19.878  0.00  0.00     0.049 C 
BRANCH  19  21
ATOM     21  C   UNL d   1     -24.566  22.050  19.818  0.00  0.00     0.413 C 
ATOM     22  F   UNL d   1     -24.104  22.021  18.497  0.00  0.00    -0.168 F 
ATOM     23  F   UNL d   1     -24.159  20.886  20.480  0.00  0.00    -0.168 F 
ATOM     24  F   UNL d   1     -25.963  22.124  19.822  0.00  0.00    -0.168 F 
ENDBRANCH  19  21
ENDBRANCH  18  19
ENDBRANCH   1  18
BRANCH   7  25
ATOM     25  C   UNL d   1     -22.994  25.351  23.193  0.00  0.00     0.255 C 
ATOM     26  O   UNL d   1     -22.982  26.493  22.774  0.00  0.00    -0.268 OA
ATOM     27  N   UNL d   1     -21.835  24.694  23.397  0.00  0.00    -0.348 N 
ATOM     28  H   UNL d   1     -21.846  23.784  23.730  0.00  0.00     0.163 HD
BRANCH  27  29
ATOM     29  C   UNL d   1     -20.559  25.356  23.114  0.00  0.00     0.132 C 
ATOM     30  C   UNL d   1     -19.477  25.100  24.179  0.00  0.00     0.195 C 
ATOM     31  O   UNL d   1     -18.581  24.920  23.064  0.00  0.00    -0.387 OA
ATOM     32  C   UNL d   1     -19.647  24.567  22.156  0.00  0.00     0.195 C 
ENDBRANCH  27  29
ENDBRANCH   7  25
TORSDOF 6
ENDMDL
