MODEL 1
REMARK VINA RESULT:      -9.1      0.000      0.000
REMARK  6 active torsions:
REMARK  status: ('A' for Active; 'I' for Inactive)
REMARK    1  A    between atoms: C_2  and  N_3 
REMARK    2  A    between atoms: C_4  and  C_5 
REMARK    3  A    between atoms: C_5  and  O_6 
REMARK    4  A    between atoms: N_8  and  C_9 
REMARK    5  A    between atoms: C_12  and  C_13 
REMARK    6  A    between atoms: N_17  and  C_18 
ROOT
ATOM      1  C   UNL d   1     -25.145  23.289  22.960  0.00  0.00     0.103 A 
ATOM      2  C   UNL d   1     -25.862  23.158  24.137  0.00  0.00     0.048 A 
ATOM      3  C   UNL d   1     -27.186  22.726  24.086  0.00  0.00    -0.010 A 
ATOM      4  C   UNL d   1     -27.998  22.573  25.295  0.00  0.00    -0.027 A 
ATOM      5  C   UNL d   1     -29.268  22.148  25.188  0.00  0.00     0.109 A 
ATOM      6  N   UNL d   1     -29.839  21.848  23.982  0.00  0.00    -0.288 N 
ATOM      7  C   UNL d   1     -29.168  21.959  22.820  0.00  0.00     0.263 A 
ATOM      8  O   UNL d   1     -29.712  21.682  21.766  0.00  0.00    -0.267 OA
ATOM      9  C   UNL d   1     -27.776  22.415  22.836  0.00  0.00     0.046 A 
ATOM     10  C   UNL d   1     -27.029  22.550  21.664  0.00  0.00     0.062 A 
ATOM     11  C   UNL d   1     -25.734  22.980  21.731  0.00  0.00     0.146 A 
ATOM     12  F   UNL d   1     -25.014  23.110  20.595  0.00  0.00    -0.204 F 
ENDROOT
BRANCH   1  13
ATOM     13  N   UNL d   1     -23.819  23.727  23.003  0.00  0.00    -0.178 N 
ATOM     14  N   UNL d   1     -22.681  22.963  22.710  0.00  0.00    -0.147 NA
ATOM     15  C   UNL d   1     -21.639  23.717  22.858  0.00  0.00     0.154 A 
ATOM     16  N   UNL d   1     -22.049  24.967  23.251  0.00  0.00    -0.283 N 
ATOM     17  C   UNL d   1     -23.395  24.965  23.336  0.00  0.00     0.351 A 
ATOM     18  O   UNL d   1     -24.100  25.906  23.654  0.00  0.00    -0.244 OA
BRANCH  15  19
ATOM     19  C   UNL d   1     -20.211  23.293  22.636  0.00  0.00     0.244 C 
BRANCH  19  20
ATOM     20  O   UNL d   1     -19.716  23.892  21.436  0.00  0.00    -0.393 OA
ATOM     21  H   UNL d   1     -19.614  24.852  21.488  0.00  0.00     0.209 HD
ENDBRANCH  19  20
ENDBRANCH  15  19
BRANCH  16  22
ATOM     22  C   UNL d   1     -21.176  26.110  23.527  0.00  0.00     0.131 C 
ATOM     23  C   UNL d   1     -20.868  26.167  25.024  0.00  0.00     0.027 C 
ENDBRANCH  16  22
ENDBRANCH   1  13
BRANCH   4  24
ATOM     24  C   UNL d   1     -27.415  22.890  26.648  0.00  0.00     0.013 C 
ATOM     25  C   UNL d   1     -28.530  23.351  27.589  0.00  0.00     0.015 C 
ATOM     26  C   UNL d   1     -26.748  21.638  27.222  0.00  0.00     0.015 C 
ENDBRANCH   4  24
BRANCH   6  27
ATOM     27  C   UNL d   1     -31.170  21.411  23.956  0.00  0.00     0.048 A 
ATOM     28  C   UNL d   1     -31.640  20.554  24.941  0.00  0.00    -0.035 A 
ATOM     29  C   UNL d   1     -32.954  20.129  24.916  0.00  0.00     0.009 A 
ATOM     30  C   UNL d   1     -30.721  20.094  26.043  0.00  0.00     0.050 C 
ATOM     31  C   UNL d   1     -33.797  20.547  23.902  0.00  0.00     0.007 A 
ATOM     32  C   UNL d   1     -33.329  21.395  22.915  0.00  0.00    -0.060 A 
ATOM     33  C   UNL d   1     -32.019  21.829  22.940  0.00  0.00     0.037 A 
ATOM     34  C   UNL d   1     -34.252  21.849  21.814  0.00  0.00     0.048 C 
ENDBRANCH   6  27
TORSDOF 6
ENDMDL
