MODEL 1
REMARK VINA RESULT:     -12.5      0.000      0.000
REMARK  6 active torsions:
REMARK  status: ('A' for Active; 'I' for Inactive)
REMARK    1  A    between atoms: C_4  and  C_5 
REMARK    2  A    between atoms: C_5  and  O_7 
REMARK    3  A    between atoms: C_10  and  C_11 
REMARK    4  A    between atoms: C_14  and  C_15 
REMARK    5  A    between atoms: N_18  and  C_19 
REMARK    6  A    between atoms: C_19  and  C_20 
ROOT
ATOM      1  C   UNL d   1     -27.941  22.282  23.318  0.00  0.00     0.010 A 
ATOM      2  C   UNL d   1     -27.330  23.237  24.133  0.00  0.00     0.016 A 
ATOM      3  C   UNL d   1     -26.019  23.593  23.913  0.00  0.00     0.013 A 
ATOM      4  C   UNL d   1     -25.302  23.007  22.869  0.00  0.00    -0.023 A 
ATOM      5  C   UNL d   1     -25.913  22.056  22.051  0.00  0.00     0.013 A 
ATOM      6  C   UNL d   1     -27.222  21.695  22.273  0.00  0.00     0.016 A 
ENDROOT
BRANCH   1   7
ATOM      7  C   UNL d   1     -29.346  21.895  23.556  0.00  0.00     0.139 A 
ATOM      8  N   UNL d   1     -30.335  22.079  22.712  0.00  0.00    -0.227 NA
ATOM      9  C   UNL d   1     -31.479  21.613  23.243  0.00  0.00     0.102 A 
ATOM     10  C   UNL d   1     -32.812  21.557  22.778  0.00  0.00     0.069 A 
ATOM     11  C   UNL d   1     -31.172  21.099  24.515  0.00  0.00     0.064 A 
ATOM     12  C   UNL d   1     -33.796  20.989  23.585  0.00  0.00     0.027 A 
ATOM     13  C   UNL d   1     -33.474  20.494  24.835  0.00  0.00    -0.059 A 
ATOM     14  C   UNL d   1     -34.551  19.889  25.698  0.00  0.00     0.048 C 
ATOM     15  C   UNL d   1     -32.173  20.544  25.299  0.00  0.00     0.038 A 
ATOM     16  N   UNL d   1     -29.815  21.290  24.690  0.00  0.00    -0.338 N 
ATOM     17  H   UNL d   1     -29.293  21.041  25.469  0.00  0.00     0.167 HD
BRANCH  10  18
ATOM     18  C   UNL d   1     -33.157  22.088  21.449  0.00  0.00     0.178 C 
ATOM     19  O   UNL d   1     -34.266  22.542  21.246  0.00  0.00    -0.646 OA
BRANCH  18  20
ATOM     20  O   UNL d   1     -32.243  22.073  20.459  0.00  0.00    -0.773 OA
ATOM     21  H   UNL d   1     -31.984  21.208  20.113  0.00  0.00     0.167 HD
ENDBRANCH  18  20
ENDBRANCH  10  18
ENDBRANCH   1   7
BRANCH   4  22
ATOM     22  C   UNL d   1     -23.891  23.395  22.629  0.00  0.00     0.010 A 
ATOM     23  C   UNL d   1     -22.959  23.678  23.585  0.00  0.00     0.126 A 
ATOM     24  N   UNL d   1     -21.808  23.984  22.954  0.00  0.00    -0.276 N 
ATOM     25  N   UNL d   1     -22.027  23.889  21.573  0.00  0.00    -0.184 NA
ATOM     26  C   UNL d   1     -23.267  23.532  21.373  0.00  0.00     0.152 A 
BRANCH  24  27
ATOM     27  C   UNL d   1     -20.545  24.351  23.600  0.00  0.00     0.189 C 
BRANCH  27  28
ATOM     28  C   UNL d   1     -20.757  25.568  24.463  0.00  0.00    -0.038 A 
ATOM     29  C   UNL d   1     -21.730  26.492  24.127  0.00  0.00     0.009 A 
ATOM     30  C   UNL d   1     -21.925  27.608  24.919  0.00  0.00     0.001 A 
ATOM     31  C   UNL d   1     -21.148  27.800  26.046  0.00  0.00     0.000 A 
ATOM     32  C   UNL d   1     -20.175  26.876  26.381  0.00  0.00     0.001 A 
ATOM     33  C   UNL d   1     -19.984  25.757  25.592  0.00  0.00     0.009 A 
ENDBRANCH  27  28
ENDBRANCH  24  27
ENDBRANCH   4  22
TORSDOF 6
ENDMDL
