MODEL 1
REMARK VINA RESULT:      -8.4      0.000      0.000
REMARK  6 active torsions:
REMARK  status: ('A' for Active; 'I' for Inactive)
REMARK    1  A    between atoms: C_2  and  N_3 
REMARK    2  A    between atoms: C_4  and  C_5 
REMARK    3  A    between atoms: C_5  and  O_6 
REMARK    4  A    between atoms: N_8  and  C_9 
REMARK    5  A    between atoms: C_12  and  C_13 
REMARK    6  A    between atoms: N_17  and  C_18 
ROOT
ATOM      1  C   UNL d   1     -21.975  24.409  22.962  0.00  0.00     0.103 A 
ATOM      2  C   UNL d   1     -21.626  25.080  24.123  0.00  0.00     0.048 A 
ATOM      3  C   UNL d   1     -20.348  25.620  24.243  0.00  0.00    -0.010 A 
ATOM      4  C   UNL d   1     -19.919  26.335  25.447  0.00  0.00    -0.027 A 
ATOM      5  C   UNL d   1     -18.676  26.840  25.507  0.00  0.00     0.109 A 
ATOM      6  N   UNL d   1     -17.784  26.712  24.478  0.00  0.00    -0.287 N 
ATOM      7  C   UNL d   1     -18.092  26.071  23.334  0.00  0.00     0.263 A 
ATOM      8  O   UNL d   1     -17.270  25.978  22.440  0.00  0.00    -0.267 OA
ATOM      9  C   UNL d   1     -19.426  25.486  23.177  0.00  0.00     0.046 A 
ATOM     10  C   UNL d   1     -19.802  24.811  22.014  0.00  0.00     0.062 A 
ATOM     11  C   UNL d   1     -21.059  24.281  21.913  0.00  0.00     0.146 A 
ATOM     12  F   UNL d   1     -21.420  23.627  20.788  0.00  0.00    -0.204 F 
ENDROOT
BRANCH   1  13
ATOM     13  N   UNL d   1     -23.253  23.860  22.836  0.00  0.00    -0.178 N 
ATOM     14  N   UNL d   1     -23.588  22.684  22.151  0.00  0.00    -0.147 NA
ATOM     15  C   UNL d   1     -24.866  22.506  22.258  0.00  0.00     0.154 A 
ATOM     16  N   UNL d   1     -25.396  23.534  22.998  0.00  0.00    -0.283 N 
ATOM     17  C   UNL d   1     -24.395  24.368  23.345  0.00  0.00     0.351 A 
ATOM     18  O   UNL d   1     -24.501  25.389  24.000  0.00  0.00    -0.244 OA
BRANCH  15  19
ATOM     19  C   UNL d   1     -25.644  21.358  21.668  0.00  0.00     0.244 C 
BRANCH  19  20
ATOM     20  O   UNL d   1     -26.196  21.753  20.410  0.00  0.00    -0.393 OA
ATOM     21  H   UNL d   1     -25.550  21.791  19.693  0.00  0.00     0.209 HD
ENDBRANCH  19  20
ENDBRANCH  15  19
BRANCH  16  22
ATOM     22  C   UNL d   1     -26.811  23.700  23.346  0.00  0.00     0.131 C 
ATOM     23  C   UNL d   1     -27.074  23.077  24.719  0.00  0.00     0.027 C 
ENDBRANCH  16  22
ENDBRANCH   1  13
BRANCH   4  24
ATOM     24  C   UNL d   1     -20.865  26.503  26.608  0.00  0.00     0.013 C 
ATOM     25  C   UNL d   1     -20.097  26.333  27.921  0.00  0.00     0.015 C 
ATOM     26  C   UNL d   1     -21.488  27.899  26.559  0.00  0.00     0.015 C 
ENDBRANCH   4  24
BRANCH   6  27
ATOM     27  C   UNL d   1     -16.508  27.265  24.620  0.00  0.00     0.067 A 
ATOM     28  C   UNL d   1     -15.464  26.521  25.169  0.00  0.00     0.078 A 
ATOM     29  C   UNL d   1     -14.217  27.103  25.287  0.00  0.00     0.143 A 
ATOM     30 CL   UNL d   1     -15.726  24.886  25.690  0.00  0.00    -0.080 Cl
ATOM     31  N   UNL d   1     -14.011  28.346  24.898  0.00  0.00    -0.264 NA
ATOM     32  C   UNL d   1     -14.975  29.083  24.379  0.00  0.00     0.032 A 
ATOM     33  C   UNL d   1     -16.248  28.575  24.221  0.00  0.00     0.058 A 
ATOM     34  C   UNL d   1     -14.681  30.498  23.952  0.00  0.00     0.070 C 
ENDBRANCH   6  27
TORSDOF 6
ENDMDL
