MODEL 1
REMARK VINA RESULT:     -10.1      0.000      0.000
REMARK  7 active torsions:
REMARK  status: ('A' for Active; 'I' for Inactive)
REMARK    1  A    between atoms: C_2  and  C_3 
REMARK    2  A    between atoms: C_3  and  C_4 
REMARK    3  A    between atoms: C_4  and  O_6 
REMARK    4  A    between atoms: O_6  and  C_7 
REMARK    5  A    between atoms: C_9  and  N_10 
REMARK    6  A    between atoms: C_23  and  C_24 
REMARK       I    between atoms: C_24  and  N_26 
REMARK    7  A    between atoms: N_26  and  C_27 
ROOT
ATOM      1  C   UNL d   1     -26.055  23.278  23.374  0.00  0.00     0.087 A 
ATOM      2  C   UNL d   1     -27.430  23.122  23.406  0.00  0.00     0.073 A 
ATOM      3  C   UNL d   1     -28.053  22.259  22.515  0.00  0.00     0.104 A 
ATOM      4  C   UNL d   1     -27.297  21.546  21.584  0.00  0.00     0.146 A 
ATOM      5  F   UNL d   1     -27.911  20.708  20.720  0.00  0.00    -0.204 F 
ATOM      6  C   UNL d   1     -25.929  21.694  21.544  0.00  0.00     0.064 A 
ATOM      7  C   UNL d   1     -25.294  22.566  22.435  0.00  0.00     0.068 A 
ENDROOT
BRANCH   7   8
ATOM      8  C   UNL d   1     -23.832  22.733  22.390  0.00  0.00     0.260 C 
ATOM      9  O   UNL d   1     -23.105  21.764  22.508  0.00  0.00    -0.267 OA
ATOM     10  N   UNL d   1     -23.299  23.959  22.217  0.00  0.00    -0.306 N 
ATOM     11  H   UNL d   1     -23.878  24.731  22.123  0.00  0.00     0.170 HD
BRANCH  10  12
ATOM     12  C   UNL d   1     -21.914  24.116  22.175  0.00  0.00     0.151 A 
ATOM     13  C   UNL d   1     -21.266  24.185  20.946  0.00  0.00     0.080 A 
ATOM     14  C   UNL d   1     -19.890  24.347  20.919  0.00  0.00     0.029 A 
ATOM     15 CL   UNL d   1     -22.168  24.077  19.467  0.00  0.00    -0.080 Cl
ATOM     16  C   UNL d   1     -19.209  24.423  22.126  0.00  0.00     0.021 A 
ATOM     17  C   UNL d   1     -19.918  24.341  23.309  0.00  0.00     0.119 A 
ATOM     18  N   UNL d   1     -21.228  24.193  23.304  0.00  0.00    -0.241 NA
ENDBRANCH  10  12
ENDBRANCH   7   8
BRANCH   1  19
ATOM     19  O   UNL d   1     -25.445  24.121  24.244  0.00  0.00    -0.345 OA
BRANCH  19  20
ATOM     20  C   UNL d   1     -25.793  25.505  24.158  0.00  0.00     0.124 C 
ATOM     21  C   UNL d   1     -26.275  25.997  25.524  0.00  0.00     0.040 C 
BRANCH  20  22
ATOM     22  C   UNL d   1     -24.565  26.313  23.730  0.00  0.00     0.032 C 
BRANCH  22  23
ATOM     23  C   UNL d   1     -23.533  26.310  24.858  0.00  0.00    -0.002 C 
ATOM     24  C   UNL d   1     -22.345  27.191  24.466  0.00  0.00     0.005 C 
ENDBRANCH  22  23
ENDBRANCH  20  22
ENDBRANCH  19  20
ENDBRANCH   1  19
BRANCH   3  25
ATOM     25  N   UNL d   1     -29.440  22.104  22.551  0.00  0.00    -0.178 N 
ATOM     26  C   UNL d   1     -30.182  21.787  23.634  0.00  0.00     0.351 A 
ATOM     27  N   UNL d   1     -31.468  21.764  23.246  0.00  0.00    -0.284 N 
ATOM     28  O   UNL d   1     -29.763  21.563  24.755  0.00  0.00    -0.244 OA
ATOM     29  C   UNL d   1     -31.518  22.035  21.894  0.00  0.00     0.131 A 
ATOM     30  C   UNL d   1     -32.649  21.525  24.083  0.00  0.00     0.135 C 
ATOM     31  N   UNL d   1     -30.321  22.255  21.469  0.00  0.00    -0.149 NA
ATOM     32  C   UNL d   1     -32.797  22.048  21.088  0.00  0.00     0.081 C 
ATOM     33  C   UNL d   1     -33.973  22.183  22.065  0.00  0.00     0.009 C 
ATOM     34  C   UNL d   1     -33.823  21.137  23.176  0.00  0.00     0.021 C 
ENDBRANCH   3  25
TORSDOF 7
ENDMDL
