MODEL 1
REMARK VINA RESULT:     -11.3      0.000      0.000
REMARK  6 active torsions:
REMARK  status: ('A' for Active; 'I' for Inactive)
REMARK    1  A    between atoms: C_2  and  O_3 
REMARK    2  A    between atoms: C_2  and  C_4 
REMARK    3  A    between atoms: C_6  and  C_7 
REMARK    4  A    between atoms: C_12  and  N_13 
REMARK    5  A    between atoms: N_13  and  C_14 
REMARK    6  A    between atoms: C_17  and  C_18 
ROOT
ATOM      1  N   UNL d   1     -28.162  22.327  24.203  0.00  0.00    -0.354 N 
ATOM      2  H   UNL d   1     -28.207  22.158  25.157  0.00  0.00     0.166 HD
ENDROOT
BRANCH   1   3
ATOM      3  C   UNL d   1     -29.310  22.238  23.427  0.00  0.00     0.049 A 
ATOM      4  C   UNL d   1     -30.524  21.835  24.006  0.00  0.00     0.064 A 
ATOM      5  C   UNL d   1     -31.671  21.749  23.212  0.00  0.00     0.028 A 
ATOM      6  C   UNL d   1     -31.603  22.058  21.871  0.00  0.00    -0.053 A 
ATOM      7  C   UNL d   1     -30.403  22.454  21.302  0.00  0.00     0.010 A 
ATOM      8  C   UNL d   1     -29.263  22.550  22.073  0.00  0.00     0.031 A 
BRANCH   4   9
ATOM      9  C   UNL d   1     -30.588  21.507  25.440  0.00  0.00     0.178 C 
ATOM     10  O   UNL d   1     -31.438  22.017  26.143  0.00  0.00    -0.646 OA
BRANCH   9  11
ATOM     11  O   UNL d   1     -29.703  20.641  25.973  0.00  0.00    -0.773 OA
ATOM     12  H   UNL d   1     -29.940  19.704  25.953  0.00  0.00     0.167 HD
ENDBRANCH   9  11
ENDBRANCH   4   9
BRANCH   6  13
ATOM     13  C   UNL d   1     -32.842  21.965  21.017  0.00  0.00     0.018 A 
ATOM     14  C   UNL d   1     -33.838  20.848  21.336  0.00  0.00     0.010 A 
ATOM     15  C   UNL d   1     -34.181  22.301  21.675  0.00  0.00     0.010 A 
ENDBRANCH   6  13
ENDBRANCH   1   3
BRANCH   1  16
ATOM     16  C   UNL d   1     -26.941  22.659  23.610  0.00  0.00     0.050 A 
ATOM     17  C   UNL d   1     -26.245  23.790  24.020  0.00  0.00     0.146 A 
ATOM     18  N   UNL d   1     -25.095  24.111  23.466  0.00  0.00    -0.258 NA
ATOM     19  C   UNL d   1     -24.555  23.374  22.503  0.00  0.00     0.070 A 
ATOM     20  C   UNL d   1     -25.199  22.228  22.039  0.00  0.00     0.035 A 
ATOM     21  C   UNL d   1     -26.407  21.859  22.601  0.00  0.00     0.033 A 
BRANCH  19  22
ATOM     22  C   UNL d   1     -23.257  23.777  21.911  0.00  0.00     0.031 A 
ATOM     23  C   UNL d   1     -22.071  23.578  22.619  0.00  0.00     0.129 A 
ATOM     24  C   UNL d   1     -20.865  23.957  22.061  0.00  0.00     0.043 A 
ATOM     25  F   UNL d   1     -22.102  23.017  23.849  0.00  0.00    -0.205 F 
ATOM     26  C   UNL d   1     -20.832  24.532  20.804  0.00  0.00     0.003 A 
ATOM     27  C   UNL d   1     -22.004  24.726  20.095  0.00  0.00     0.001 A 
ATOM     28  C   UNL d   1     -23.215  24.357  20.645  0.00  0.00     0.017 A 
ENDBRANCH  19  22
ENDBRANCH   1  16
TORSDOF 6
ENDMDL
