MODEL 1
REMARK VINA RESULT:     -11.5      0.000      0.000
REMARK  7 active torsions:
REMARK  status: ('A' for Active; 'I' for Inactive)
REMARK    1  A    between atoms: C_2  and  C_3 
REMARK       I    between atoms: C_2  and  N_19 
REMARK    2  A    between atoms: C_3  and  C_4 
REMARK    3  A    between atoms: C_4  and  N_5 
REMARK       I    between atoms: N_5  and  C_6 
REMARK    4  A    between atoms: C_6  and  C_8 
REMARK    5  A    between atoms: C_11  and  O_12 
REMARK    6  A    between atoms: O_12  and  C_13 
REMARK    7  A    between atoms: N_19  and  C_20 
ROOT
ATOM      1  C   UNL d   1     -25.040  21.636  21.656  0.00  0.00     0.132 C 
ENDROOT
BRANCH   1   2
ATOM      2  C   UNL d   1     -24.861  22.289  20.284  0.00  0.00     0.122 C 
BRANCH   2   3
ATOM      3  C   UNL d   1     -23.666  23.207  20.315  0.00  0.00     0.219 C 
ATOM      4  O   UNL d   1     -23.291  23.747  19.296  0.00  0.00    -0.274 OA
ATOM      5  N   UNL d   1     -23.015  23.426  21.475  0.00  0.00    -0.352 N 
ATOM      6  H   UNL d   1     -23.316  22.994  22.289  0.00  0.00     0.163 HD
BRANCH   5   7
ATOM      7  C   UNL d   1     -21.853  24.318  21.504  0.00  0.00     0.118 C 
ATOM      8  C   UNL d   1     -22.043  25.345  22.590  0.00  0.00    -0.029 A 
ATOM      9  C   UNL d   1     -21.025  25.728  23.433  0.00  0.00    -0.050 A 
ATOM     10  C   UNL d   1     -23.302  25.916  22.728  0.00  0.00     0.010 A 
ATOM     11  C   UNL d   1     -19.639  25.142  23.351  0.00  0.00     0.039 C 
ATOM     12  C   UNL d   1     -21.264  26.688  24.408  0.00  0.00     0.007 A 
ATOM     13  C   UNL d   1     -19.425  24.459  22.002  0.00  0.00     0.007 C 
ATOM     14  C   UNL d   1     -20.593  23.494  21.760  0.00  0.00     0.030 C 
ATOM     15  C   UNL d   1     -22.514  27.255  24.543  0.00  0.00     0.001 A 
ATOM     16  C   UNL d   1     -23.538  26.866  23.699  0.00  0.00     0.001 A 
ENDBRANCH   5   7
ENDBRANCH   2   3
ENDBRANCH   1   2
BRANCH   1  17
ATOM     17  N   UNL d   1     -26.468  21.508  21.954  0.00  0.00    -0.356 N 
ATOM     18  C   UNL d   1     -27.044  22.328  22.856  0.00  0.00     0.251 C 
ATOM     19  O   UNL d   1     -26.379  23.174  23.422  0.00  0.00    -0.268 OA
ATOM     20  H   UNL d   1     -26.999  20.833  21.504  0.00  0.00     0.162 HD
BRANCH  18  21
ATOM     21  C   UNL d   1     -28.483  22.198  23.157  0.00  0.00     0.032 A 
ATOM     22  C   UNL d   1     -28.900  21.814  24.434  0.00  0.00     0.020 A 
ATOM     23  C   UNL d   1     -30.244  21.694  24.711  0.00  0.00     0.038 A 
ATOM     24  C   UNL d   1     -31.185  21.955  23.722  0.00  0.00     0.078 A 
ATOM     25  C   UNL d   1     -30.774  22.338  22.450  0.00  0.00     0.038 A 
ATOM     26  C   UNL d   1     -29.433  22.464  22.167  0.00  0.00     0.020 A 
BRANCH  24  27
ATOM     27  O   UNL d   1     -32.509  21.836  23.998  0.00  0.00    -0.255 OA
BRANCH  27  28
ATOM     28  C   UNL d   1     -33.062  20.519  23.967  0.00  0.00     0.530 C 
ATOM     29  F   UNL d   1     -33.110  20.064  22.644  0.00  0.00    -0.144 F 
ATOM     30  F   UNL d   1     -32.262  19.660  24.727  0.00  0.00    -0.144 F 
ATOM     31  F   UNL d   1     -34.356  20.544  24.498  0.00  0.00    -0.144 F 
ENDBRANCH  27  28
ENDBRANCH  24  27
ENDBRANCH  18  21
ENDBRANCH   1  17
TORSDOF 7
ENDMDL
