MODEL 1
REMARK VINA RESULT:     -10.0      0.000      0.000
REMARK  4 active torsions:
REMARK  status: ('A' for Active; 'I' for Inactive)
REMARK    1  A    between atoms: C_2  and  O_3 
REMARK    2  A    between atoms: C_4  and  C_7 
REMARK       I    between atoms: C_7  and  N_9 
REMARK    3  A    between atoms: N_9  and  C_10 
REMARK    4  A    between atoms: C_13  and  C_14 
ROOT
ATOM      1  C   UNL d   1     -33.102  21.407  23.738  0.00  0.00     0.077 C 
ATOM      2  C   UNL d   1     -31.796  21.827  23.116  0.00  0.00     0.065 C 
ATOM      3  C   UNL d   1     -30.674  21.923  23.885  0.00  0.00     0.141 C 
ATOM      4  C   UNL d   1     -30.738  21.624  25.284  0.00  0.00     0.107 C 
ATOM      5  N   UNL d   1     -30.788  21.386  26.394  0.00  0.00    -0.191 NA
ENDROOT
BRANCH   3   6
ATOM      6  C   UNL d   1     -29.399  22.334  23.280  0.00  0.00     0.269 C 
ATOM      7  O   UNL d   1     -29.384  23.197  22.422  0.00  0.00    -0.266 OA
ATOM      8  N   UNL d   1     -28.248  21.755  23.674  0.00  0.00    -0.322 N 
ATOM      9  H   UNL d   1     -28.267  21.015  24.300  0.00  0.00     0.169 HD
BRANCH   8  10
ATOM     10  C   UNL d   1     -27.027  22.221  23.180  0.00  0.00     0.035 A 
ATOM     11  C   UNL d   1     -26.442  21.605  22.080  0.00  0.00     0.030 A 
ATOM     12  C   UNL d   1     -25.240  22.067  21.588  0.00  0.00     0.014 A 
ATOM     13  C   UNL d   1     -24.605  23.145  22.201  0.00  0.00    -0.024 A 
ATOM     14  C   UNL d   1     -25.193  23.762  23.304  0.00  0.00     0.014 A 
ATOM     15  C   UNL d   1     -26.398  23.300  23.790  0.00  0.00     0.030 A 
BRANCH  13  16
ATOM     16  C   UNL d   1     -23.308  23.639  21.676  0.00  0.00    -0.004 A 
ATOM     17  C   UNL d   1     -22.165  23.585  22.472  0.00  0.00     0.045 A 
ATOM     18  C   UNL d   1     -20.961  24.053  21.980  0.00  0.00     0.024 A 
ATOM     19 CL   UNL d   1     -22.254  22.939  24.080  0.00  0.00    -0.083 Cl
ATOM     20  C   UNL d   1     -20.888  24.564  20.696  0.00  0.00     0.002 A 
ATOM     21  C   UNL d   1     -22.020  24.620  19.903  0.00  0.00     0.001 A 
ATOM     22  C   UNL d   1     -23.229  24.161  20.386  0.00  0.00     0.014 A 
ENDBRANCH  13  16
ENDBRANCH   8  10
ENDBRANCH   3   6
BRANCH   2  23
ATOM     23  O   UNL d   1     -31.735  22.109  21.803  0.00  0.00    -0.364 OA
ATOM     24  H   UNL d   1     -32.560  22.373  21.372  0.00  0.00     0.217 HD
ENDBRANCH   2  23
TORSDOF 4
ENDMDL
