MODEL 1
REMARK VINA RESULT:     -11.9      0.000      0.000
REMARK  3 active torsions:
REMARK  status: ('A' for Active; 'I' for Inactive)
REMARK    1  A    between atoms: C_3  and  O_4 
REMARK    2  A    between atoms: C_5  and  N_6 
REMARK    3  A    between atoms: N_9  and  C_10 
ROOT
ATOM      1  O   UNL d   1     -32.213  20.511  25.935  0.00  0.00    -0.284 OA
ATOM      2  C   UNL d   1     -31.615  20.995  24.994  0.00  0.00     0.218 A 
ATOM      3  C   UNL d   1     -30.173  21.260  25.096  0.00  0.00     0.148 A 
ATOM      4  C   UNL d   1     -29.491  21.799  24.054  0.00  0.00     0.119 A 
ATOM      5  C   UNL d   1     -30.181  22.126  22.790  0.00  0.00     0.212 A 
ATOM      6  O   UNL d   1     -29.560  22.609  21.865  0.00  0.00    -0.285 OA
ATOM      7  C   UNL d   1     -31.633  21.875  22.661  0.00  0.00     0.031 A 
ATOM      8  C   UNL d   1     -32.304  22.181  21.483  0.00  0.00     0.016 A 
ATOM      9  C   UNL d   1     -33.665  21.931  21.381  0.00  0.00     0.001 A 
ATOM     10  C   UNL d   1     -34.356  21.384  22.444  0.00  0.00     0.001 A 
ATOM     11  C   UNL d   1     -33.700  21.075  23.625  0.00  0.00     0.016 A 
ATOM     12  C   UNL d   1     -32.338  21.317  23.742  0.00  0.00     0.031 A 
ENDROOT
BRANCH   4  13
ATOM     13  N   UNL d   1     -28.130  22.040  24.176  0.00  0.00    -0.373 N 
ATOM     14  C   UNL d   1     -27.179  21.511  23.186  0.00  0.00     0.138 C 
ATOM     15  C   UNL d   1     -26.287  22.663  22.707  0.00  0.00     0.115 C 
ATOM     16  N   UNL d   1     -25.674  23.319  23.868  0.00  0.00    -0.279 NA
ATOM     17  C   UNL d   1     -26.692  23.927  24.735  0.00  0.00     0.115 C 
ATOM     18  C   UNL d   1     -27.601  22.833  25.295  0.00  0.00     0.138 C 
BRANCH  16  19
ATOM     19  C   UNL d   1     -24.729  24.267  23.466  0.00  0.00     0.034 A 
ATOM     20  C   UNL d   1     -23.626  23.876  22.717  0.00  0.00     0.077 A 
ATOM     21  C   UNL d   1     -22.696  24.817  22.317  0.00  0.00     0.057 A 
ATOM     22 CL   UNL d   1     -23.420  22.209  22.279  0.00  0.00    -0.081 Cl
ATOM     23  C   UNL d   1     -22.857  26.145  22.671  0.00  0.00     0.026 A 
ATOM     24 CL   UNL d   1     -21.320  24.332  21.374  0.00  0.00    -0.082 Cl
ATOM     25  C   UNL d   1     -23.950  26.536  23.422  0.00  0.00     0.004 A 
ATOM     26  C   UNL d   1     -24.887  25.601  23.820  0.00  0.00     0.025 A 
ENDBRANCH  16  19
ENDBRANCH   4  13
BRANCH   3  27
ATOM     27  O   UNL d   1     -29.517  20.962  26.246  0.00  0.00    -0.355 OA
ATOM     28  H   UNL d   1     -29.804  21.482  27.010  0.00  0.00     0.218 HD
ENDBRANCH   3  27
TORSDOF 3
ENDMDL
