MODEL 1
REMARK VINA RESULT:     -10.1      0.000      0.000
REMARK  5 active torsions:
REMARK  status: ('A' for Active; 'I' for Inactive)
REMARK    1  A    between atoms: C_3  and  C_4 
REMARK    2  A    between atoms: C_4  and  N_5 
REMARK       I    between atoms: N_8  and  C_9 
REMARK    3  A    between atoms: C_9  and  C_11 
REMARK    4  A    between atoms: C_21  and  N_22 
REMARK    5  A    between atoms: N_22  and  C_23 
ROOT
ATOM      1  C   UNL d   1     -26.535  24.150  24.770  0.00  0.00     0.051 C 
ATOM      2  C   UNL d   1     -26.172  23.288  23.587  0.00  0.00    -0.027 A 
ATOM      3  C   UNL d   1     -25.116  23.645  22.770  0.00  0.00    -0.022 A 
ATOM      4  C   UNL d   1     -24.783  22.855  21.685  0.00  0.00     0.009 A 
ATOM      5  C   UNL d   1     -25.504  21.707  21.414  0.00  0.00     0.003 A 
ATOM      6  C   UNL d   1     -26.556  21.342  22.230  0.00  0.00     0.030 A 
ATOM      7  C   UNL d   1     -26.898  22.136  23.318  0.00  0.00     0.040 A 
ENDROOT
BRANCH   3   8
ATOM      8  C   UNL d   1     -24.329  24.896  23.062  0.00  0.00     0.311 C 
BRANCH   8   9
ATOM      9  N   UNL d   1     -22.894  24.618  22.907  0.00  0.00     0.095 N 
ATOM     10  C   UNL d   1     -22.334  24.040  24.137  0.00  0.00     0.292 C 
ATOM     11  C   UNL d   1     -20.890  23.598  23.878  0.00  0.00     0.156 C 
ATOM     12  N   UNL d   1     -20.143  24.741  23.331  0.00  0.00    -0.348 N 
ATOM     13  C   UNL d   1     -20.711  25.457  22.180  0.00  0.00     0.156 C 
ATOM     14  C   UNL d   1     -18.967  25.120  23.871  0.00  0.00     0.224 C 
ATOM     15  C   UNL d   1     -22.163  25.827  22.506  0.00  0.00     0.292 C 
ATOM     16  O   UNL d   1     -18.513  24.517  24.819  0.00  0.00    -0.273 OA
BRANCH  14  17
ATOM     17  C   UNL d   1     -18.218  26.294  23.294  0.00  0.00     0.078 C 
ATOM     18  C   UNL d   1     -17.727  27.212  24.427  0.00  0.00     0.014 C 
ATOM     19  C   UNL d   1     -16.187  27.248  24.330  0.00  0.00     0.001 C 
ATOM     20  C   UNL d   1     -15.892  26.883  22.853  0.00  0.00     0.001 C 
ATOM     21  C   UNL d   1     -16.961  25.804  22.548  0.00  0.00     0.014 C 
ENDBRANCH  14  17
ENDBRANCH   8   9
ENDBRANCH   3   8
BRANCH   7  22
ATOM     22  N   UNL d   1     -27.966  21.772  24.143  0.00  0.00    -0.335 N 
ATOM     23  H   UNL d   1     -27.798  21.459  25.045  0.00  0.00     0.168 HD
BRANCH  22  24
ATOM     24  C   UNL d   1     -29.268  21.859  23.670  0.00  0.00     0.171 A 
ATOM     25  S   UNL d   1     -29.710  22.391  22.107  0.00  0.00    -0.055 SA
ATOM     26  C   UNL d   1     -31.406  22.149  22.500  0.00  0.00     0.011 A 
ATOM     27  C   UNL d   1     -31.502  21.686  23.744  0.00  0.00     0.050 A 
ATOM     28  C   UNL d   1     -32.583  22.422  21.577  0.00  0.00     0.048 C 
ATOM     29  N   UNL d   1     -30.325  21.549  24.349  0.00  0.00    -0.228 NA
ATOM     30  C   UNL d   1     -32.835  21.326  24.402  0.00  0.00     0.060 C 
ATOM     31  C   UNL d   1     -33.429  20.149  23.624  0.00  0.00     0.006 C 
ATOM     32  C   UNL d   1     -34.125  20.609  22.366  0.00  0.00     0.001 C 
ATOM     33  C   UNL d   1     -33.227  21.070  21.243  0.00  0.00     0.005 C 
ENDBRANCH  22  24
ENDBRANCH   7  22
TORSDOF 5
ENDMDL
