MODEL 1
REMARK VINA RESULT:     -11.1      0.000      0.000
REMARK  5 active torsions:
REMARK  status: ('A' for Active; 'I' for Inactive)
REMARK    1  A    between atoms: C_5  and  N_6 
REMARK    2  A    between atoms: N_6  and  C_7 
REMARK    3  A    between atoms: C_10  and  C_11 
REMARK    4  A    between atoms: C_21  and  C_22 
REMARK    5  A    between atoms: C_22  and  O_24 
ROOT
ATOM      1  C   UNL d   1     -26.961  22.773  23.693  0.00  0.00     0.050 A 
ATOM      2  C   UNL d   1     -26.254  23.910  24.069  0.00  0.00     0.146 A 
ATOM      3  N   UNL d   1     -25.105  24.207  23.499  0.00  0.00    -0.257 NA
ATOM      4  C   UNL d   1     -24.575  23.440  22.556  0.00  0.00     0.075 A 
ATOM      5  C   UNL d   1     -25.229  22.287  22.124  0.00  0.00    -0.030 A 
ATOM      6  C   UNL d   1     -24.625  21.423  21.048  0.00  0.00     0.050 C 
ATOM      7  C   UNL d   1     -26.439  21.944  22.701  0.00  0.00     0.040 A 
ENDROOT
BRANCH   1   8
ATOM      8  N   UNL d   1     -28.179  22.465  24.302  0.00  0.00    -0.354 N 
ATOM      9  H   UNL d   1     -28.224  22.345  25.264  0.00  0.00     0.166 HD
BRANCH   8  10
ATOM     10  C   UNL d   1     -29.326  22.328  23.530  0.00  0.00     0.049 A 
ATOM     11  C   UNL d   1     -29.309  22.683  22.187  0.00  0.00     0.031 A 
ATOM     12  C   UNL d   1     -30.447  22.541  21.420  0.00  0.00     0.009 A 
ATOM     13  C   UNL d   1     -31.618  22.057  21.984  0.00  0.00    -0.061 A 
ATOM     14  C   UNL d   1     -32.854  21.913  21.135  0.00  0.00     0.048 C 
ATOM     15  C   UNL d   1     -31.656  21.705  23.315  0.00  0.00     0.027 A 
ATOM     16  C   UNL d   1     -30.510  21.838  24.104  0.00  0.00     0.064 A 
BRANCH  16  17
ATOM     17  C   UNL d   1     -30.543  21.463  25.528  0.00  0.00     0.178 C 
ATOM     18  O   UNL d   1     -31.422  21.895  26.249  0.00  0.00    -0.646 OA
BRANCH  17  19
ATOM     19  O   UNL d   1     -29.603  20.641  26.032  0.00  0.00    -0.773 OA
ATOM     20  H   UNL d   1     -29.619  20.487  26.987  0.00  0.00     0.167 HD
ENDBRANCH  17  19
ENDBRANCH  16  17
ENDBRANCH   8  10
ENDBRANCH   1   8
BRANCH   4  21
ATOM     21  C   UNL d   1     -23.275  23.814  21.950  0.00  0.00     0.032 A 
ATOM     22  C   UNL d   1     -22.081  23.516  22.610  0.00  0.00     0.129 A 
ATOM     23  C   UNL d   1     -20.872  23.862  22.035  0.00  0.00     0.043 A 
ATOM     24  F   UNL d   1     -22.108  22.883  23.804  0.00  0.00    -0.205 F 
ATOM     25  C   UNL d   1     -20.846  24.514  20.817  0.00  0.00     0.003 A 
ATOM     26  C   UNL d   1     -22.026  24.818  20.162  0.00  0.00     0.001 A 
ATOM     27  C   UNL d   1     -23.239  24.471  20.720  0.00  0.00     0.017 A 
ENDBRANCH   4  21
TORSDOF 5
ENDMDL
