MODEL 1
REMARK VINA RESULT:     -12.7      0.000      0.000
REMARK  2 active torsions:
REMARK  status: ('A' for Active; 'I' for Inactive)
REMARK    1  A    between atoms: N_15  and  C_16 
REMARK    2  A    between atoms: C_19  and  C_20 
ROOT
ATOM      1  O   UNL d   1     -32.120  21.016  25.984  0.00  0.00    -0.285 OA
ATOM      2  C   UNL d   1     -31.451  21.395  25.043  0.00  0.00     0.216 A 
ATOM      3  C   UNL d   1     -32.074  21.576  23.713  0.00  0.00     0.031 A 
ATOM      4  C   UNL d   1     -33.428  21.314  23.528  0.00  0.00     0.016 A 
ATOM      5  C   UNL d   1     -33.999  21.488  22.279  0.00  0.00     0.001 A 
ATOM      6  C   UNL d   1     -33.233  21.919  21.212  0.00  0.00     0.001 A 
ATOM      7  C   UNL d   1     -31.884  22.183  21.380  0.00  0.00     0.016 A 
ATOM      8  C   UNL d   1     -31.295  22.014  22.628  0.00  0.00     0.031 A 
ATOM      9  C   UNL d   1     -29.854  22.294  22.821  0.00  0.00     0.214 A 
ATOM     10  O   UNL d   1     -29.176  22.673  21.886  0.00  0.00    -0.285 OA
ATOM     11  C   UNL d   1     -29.246  22.110  24.146  0.00  0.00     0.146 A 
ATOM     12  C   UNL d   1     -30.014  21.676  25.221  0.00  0.00     0.164 A 
ATOM     13  N   UNL d   1     -29.182  21.612  26.267  0.00  0.00    -0.125 NA
ATOM     14  N   UNL d   1     -28.002  21.964  25.890  0.00  0.00    -0.059 NA
ATOM     15  N   UNL d   1     -27.987  22.276  24.639  0.00  0.00    -0.209 N 
ENDROOT
BRANCH  15  16
ATOM     16  C   UNL d   1     -26.871  22.704  23.914  0.00  0.00     0.060 A 
ATOM     17  C   UNL d   1     -26.327  21.885  22.931  0.00  0.00     0.032 A 
ATOM     18  C   UNL d   1     -25.230  22.307  22.210  0.00  0.00     0.014 A 
ATOM     19  C   UNL d   1     -24.659  23.551  22.476  0.00  0.00    -0.024 A 
ATOM     20  C   UNL d   1     -25.207  24.370  23.462  0.00  0.00     0.014 A 
ATOM     21  C   UNL d   1     -26.308  23.947  24.176  0.00  0.00     0.032 A 
BRANCH  19  22
ATOM     22  C   UNL d   1     -23.475  24.004  21.707  0.00  0.00    -0.008 A 
ATOM     23  C   UNL d   1     -23.437  23.869  20.321  0.00  0.00     0.128 A 
ATOM     24  N   UNL d   1     -22.385  24.273  19.638  0.00  0.00    -0.272 NA
ATOM     25  C   UNL d   1     -21.337  24.813  20.227  0.00  0.00     0.116 A 
ATOM     26  C   UNL d   1     -21.298  24.980  21.599  0.00  0.00     0.020 A 
ATOM     27  C   UNL d   1     -22.378  24.573  22.362  0.00  0.00     0.015 A 
ENDBRANCH  19  22
ENDBRANCH  15  16
TORSDOF 2
ENDMDL
