MODEL 1
REMARK VINA RESULT:     -12.3      0.000      0.000
REMARK  4 active torsions:
REMARK  status: ('A' for Active; 'I' for Inactive)
REMARK    1  A    between atoms: C_3  and  C_4 
REMARK    2  A    between atoms: C_7  and  C_8 
REMARK    3  A    between atoms: C_24  and  C_25 
REMARK    4  A    between atoms: C_25  and  O_27 
ROOT
ATOM      1  C   UNL d   1     -27.873  21.878  25.576  0.00  0.00     0.052 C 
ATOM      2  C   UNL d   1     -28.792  21.970  24.385  0.00  0.00    -0.015 A 
ATOM      3  C   UNL d   1     -28.298  22.395  23.141  0.00  0.00     0.074 A 
ATOM      4  N   UNL d   1     -29.063  22.484  22.074  0.00  0.00    -0.247 NA
ATOM      5  C   UNL d   1     -30.361  22.182  22.099  0.00  0.00     0.069 A 
ATOM      6  C   UNL d   1     -31.154  22.287  20.940  0.00  0.00     0.035 A 
ATOM      7  C   UNL d   1     -32.476  21.973  20.996  0.00  0.00     0.044 A 
ATOM      8  C   UNL d   1     -33.065  21.545  22.187  0.00  0.00     0.117 A 
ATOM      9  F   UNL d   1     -34.381  21.241  22.209  0.00  0.00    -0.206 F 
ATOM     10  C   UNL d   1     -32.327  21.432  23.330  0.00  0.00     0.057 A 
ATOM     11  C   UNL d   1     -30.965  21.748  23.307  0.00  0.00     0.013 A 
ATOM     12  C   UNL d   1     -30.135  21.641  24.507  0.00  0.00     0.058 A 
ENDROOT
BRANCH   3  13
ATOM     13  C   UNL d   1     -26.863  22.750  23.025  0.00  0.00    -0.007 A 
ATOM     14  C   UNL d   1     -26.022  21.995  22.209  0.00  0.00     0.014 A 
ATOM     15  C   UNL d   1     -24.691  22.329  22.096  0.00  0.00     0.013 A 
ATOM     16  C   UNL d   1     -24.181  23.413  22.808  0.00  0.00    -0.026 A 
ATOM     17  C   UNL d   1     -25.022  24.169  23.626  0.00  0.00     0.013 A 
ATOM     18  C   UNL d   1     -26.355  23.839  23.735  0.00  0.00     0.014 A 
BRANCH  16  19
ATOM     19  C   UNL d   1     -22.746  23.770  22.692  0.00  0.00    -0.026 A 
ATOM     20  C   UNL d   1     -21.947  23.837  23.832  0.00  0.00     0.012 A 
ATOM     21  C   UNL d   1     -20.613  24.169  23.718  0.00  0.00     0.001 A 
ATOM     22  C   UNL d   1     -20.068  24.438  22.475  0.00  0.00     0.000 A 
ATOM     23  C   UNL d   1     -20.856  24.374  21.340  0.00  0.00     0.001 A 
ATOM     24  C   UNL d   1     -22.190  24.036  21.442  0.00  0.00     0.012 A 
ENDBRANCH  16  19
ENDBRANCH   3  13
BRANCH  12  25
ATOM     25  C   UNL d   1     -30.702  21.195  25.796  0.00  0.00     0.177 C 
ATOM     26  O   UNL d   1     -31.315  21.977  26.494  0.00  0.00    -0.646 OA
BRANCH  25  27
ATOM     27  O   UNL d   1     -30.538  19.918  26.197  0.00  0.00    -0.773 OA
ATOM     28  H   UNL d   1     -30.249  19.281  25.529  0.00  0.00     0.167 HD
ENDBRANCH  25  27
ENDBRANCH  12  25
TORSDOF 4
ENDMDL
