MODEL 1
REMARK VINA RESULT:     -11.1      0.000      0.000
REMARK  8 active torsions:
REMARK  status: ('A' for Active; 'I' for Inactive)
REMARK    1  A    between atoms: C_4  and  C_5 
REMARK    2  A    between atoms: C_5  and  O_7 
REMARK    3  A    between atoms: C_12  and  C_13 
REMARK    4  A    between atoms: C_16  and  C_17 
REMARK    5  A    between atoms: C_20  and  O_21 
REMARK    6  A    between atoms: N_26  and  C_27 
REMARK    7  A    between atoms: C_27  and  C_28 
REMARK    8  A    between atoms: C_28  and  O_29 
ROOT
ATOM      1  C   UNL d   1     -33.729  21.834  22.112  0.00  0.00     0.048 C 
ATOM      2  C   UNL d   1     -32.352  21.844  22.726  0.00  0.00    -0.059 A 
ATOM      3  C   UNL d   1     -32.170  21.347  24.003  0.00  0.00     0.027 A 
ATOM      4  C   UNL d   1     -30.903  21.350  24.586  0.00  0.00     0.067 A 
ATOM      5  C   UNL d   1     -29.812  21.855  23.863  0.00  0.00     0.082 A 
ATOM      6  C   UNL d   1     -30.009  22.364  22.567  0.00  0.00     0.087 A 
ATOM      7  C   UNL d   1     -31.290  22.349  22.008  0.00  0.00     0.040 A 
ATOM      8  N   UNL d   1     -28.802  22.785  22.116  0.00  0.00    -0.228 NA
ATOM      9  C   UNL d   1     -27.892  22.576  23.038  0.00  0.00     0.141 A 
ATOM     10  N   UNL d   1     -28.473  22.006  24.139  0.00  0.00    -0.326 N 
ENDROOT
BRANCH   9  11
ATOM     11  C   UNL d   1     -26.458  22.908  22.907  0.00  0.00     0.010 A 
ATOM     12  C   UNL d   1     -25.614  22.080  22.165  0.00  0.00     0.016 A 
ATOM     13  C   UNL d   1     -24.278  22.390  22.045  0.00  0.00     0.013 A 
ATOM     14  C   UNL d   1     -23.768  23.532  22.663  0.00  0.00    -0.026 A 
ATOM     15  C   UNL d   1     -24.611  24.360  23.404  0.00  0.00     0.013 A 
ATOM     16  C   UNL d   1     -25.947  24.055  23.521  0.00  0.00     0.016 A 
BRANCH  14  17
ATOM     17  C   UNL d   1     -22.328  23.865  22.533  0.00  0.00    -0.026 A 
ATOM     18  C   UNL d   1     -21.778  24.103  21.273  0.00  0.00     0.015 A 
ATOM     19  C   UNL d   1     -20.440  24.412  21.156  0.00  0.00     0.037 A 
ATOM     20  C   UNL d   1     -19.641  24.488  22.288  0.00  0.00     0.065 A 
ATOM     21  C   UNL d   1     -20.186  24.251  23.543  0.00  0.00     0.037 A 
ATOM     22  C   UNL d   1     -21.525  23.945  23.668  0.00  0.00     0.015 A 
BRANCH  20  23
ATOM     23  O   UNL d   1     -18.323  24.794  22.168  0.00  0.00    -0.361 OA
ATOM     24  H   UNL d   1     -17.900  25.047  23.000  0.00  0.00     0.217 HD
ENDBRANCH  20  23
ENDBRANCH  14  17
ENDBRANCH   9  11
BRANCH  10  25
ATOM     25  C   UNL d   1     -27.793  21.620  25.378  0.00  0.00     0.157 C 
BRANCH  25  26
ATOM     26  C   UNL d   1     -27.558  22.863  26.238  0.00  0.00     0.184 C 
BRANCH  26  27
ATOM     27  O   UNL d   1     -28.036  22.622  27.564  0.00  0.00    -0.399 OA
ATOM     28  H   UNL d   1     -27.405  22.857  28.258  0.00  0.00     0.209 HD
ENDBRANCH  26  27
ENDBRANCH  25  26
ENDBRANCH  10  25
BRANCH   4  29
ATOM     29  C   UNL d   1     -30.709  20.820  25.948  0.00  0.00     0.178 C 
ATOM     30  O   UNL d   1     -30.677  21.578  26.895  0.00  0.00    -0.646 OA
BRANCH  29  31
ATOM     31  O   UNL d   1     -30.567  19.494  26.140  0.00  0.00    -0.773 OA
ATOM     32  H   UNL d   1     -31.216  18.916  25.713  0.00  0.00     0.167 HD
ENDBRANCH  29  31
ENDBRANCH   4  29
TORSDOF 8
ENDMDL
