MODEL 1
REMARK VINA RESULT:      -8.1      0.000      0.000
REMARK  6 active torsions:
REMARK  status: ('A' for Active; 'I' for Inactive)
REMARK    1  A    between atoms: C_8  and  N_9 
REMARK       I    between atoms: N_9  and  C_10 
REMARK    2  A    between atoms: C_10  and  C_12 
REMARK    3  A    between atoms: C_16  and  N_17 
REMARK    4  A    between atoms: C_28  and  O_29 
REMARK    5  A    between atoms: O_29  and  C_30 
REMARK    6  A    between atoms: C_30  and  C_32 
ROOT
ATOM      1  C   UNL d   1     -19.796  26.988  25.586  0.00  0.00     0.068 A 
ATOM      2  C   UNL d   1     -21.170  27.221  25.447  0.00  0.00     0.064 A 
ATOM      3  C   UNL d   1     -21.911  26.456  24.575  0.00  0.00     0.146 A 
ATOM      4  F   UNL d   1     -23.237  26.681  24.442  0.00  0.00    -0.204 F 
ATOM      5  C   UNL d   1     -21.299  25.447  23.832  0.00  0.00     0.104 A 
ATOM      6  C   UNL d   1     -19.936  25.214  23.959  0.00  0.00     0.073 A 
ATOM      7  C   UNL d   1     -19.182  25.975  24.836  0.00  0.00     0.087 A 
ENDROOT
BRANCH   1   8
ATOM      8  C   UNL d   1     -18.999  27.806  26.517  0.00  0.00     0.259 C 
ATOM      9  N   UNL d   1     -18.241  27.209  27.458  0.00  0.00    -0.319 N 
ATOM     10  H   UNL d   1     -18.156  26.243  27.471  0.00  0.00     0.169 HD
ATOM     11  O   UNL d   1     -19.024  29.019  26.434  0.00  0.00    -0.267 OA
BRANCH   9  12
ATOM     12  C   UNL d   1     -17.578  27.983  28.416  0.00  0.00     0.084 A 
ATOM     13  C   UNL d   1     -16.267  28.409  28.208  0.00  0.00     0.060 A 
ATOM     14  C   UNL d   1     -15.536  28.042  26.943  0.00  0.00     0.073 C 
ATOM     15  N   UNL d   1     -15.678  29.143  29.137  0.00  0.00    -0.245 NA
ATOM     16  C   UNL d   1     -16.308  29.464  30.248  0.00  0.00     0.233 A 
ATOM     17  N   UNL d   1     -17.545  29.077  30.484  0.00  0.00    -0.245 NA
ATOM     18  C   UNL d   1     -18.208  28.345  29.604  0.00  0.00     0.060 A 
ATOM     19  C   UNL d   1     -19.622  27.907  29.883  0.00  0.00     0.073 C 
ENDBRANCH   9  12
ENDBRANCH   1   8
BRANCH   7  20
ATOM     20  O   UNL d   1     -17.851  25.744  24.965  0.00  0.00    -0.345 OA
BRANCH  20  21
ATOM     21  C   UNL d   1     -17.044  25.936  23.802  0.00  0.00     0.129 C 
ATOM     22  C   UNL d   1     -17.007  27.424  23.446  0.00  0.00     0.040 C 
BRANCH  21  23
ATOM     23  C   UNL d   1     -15.623  25.444  24.080  0.00  0.00     0.015 C 
ATOM     24  C   UNL d   1     -15.122  24.627  22.887  0.00  0.00     0.007 C 
ATOM     25  C   UNL d   1     -13.700  24.135  23.165  0.00  0.00     0.000 C 
ATOM     26  C   UNL d   1     -13.700  23.259  24.418  0.00  0.00     0.000 C 
ATOM     27  C   UNL d   1     -14.200  24.075  25.612  0.00  0.00     0.000 C 
ATOM     28  C   UNL d   1     -15.622  24.567  25.334  0.00  0.00     0.007 C 
ENDBRANCH  21  23
ENDBRANCH  20  21
ENDBRANCH   7  20
BRANCH   5  29
ATOM     29  N   UNL d   1     -22.058  24.675  22.949  0.00  0.00    -0.178 N 
ATOM     30  C   UNL d   1     -21.952  24.664  21.602  0.00  0.00     0.351 A 
ATOM     31  N   UNL d   1     -22.840  23.769  21.139  0.00  0.00    -0.284 N 
ATOM     32  O   UNL d   1     -21.191  25.339  20.933  0.00  0.00    -0.244 OA
ATOM     33  C   UNL d   1     -23.530  23.246  22.213  0.00  0.00     0.131 A 
ATOM     34  C   UNL d   1     -23.055  23.365  19.745  0.00  0.00     0.135 C 
ATOM     35  N   UNL d   1     -23.066  23.764  23.299  0.00  0.00    -0.149 NA
ATOM     36  C   UNL d   1     -24.651  22.241  22.080  0.00  0.00     0.081 C 
ATOM     37  C   UNL d   1     -24.549  21.596  20.692  0.00  0.00     0.009 C 
ATOM     38  C   UNL d   1     -24.431  22.698  19.635  0.00  0.00     0.021 C 
ENDBRANCH   5  29
TORSDOF 6
ENDMDL
