MODEL 1
REMARK VINA RESULT:     -10.1      0.000      0.000
REMARK  7 active torsions:
REMARK  status: ('A' for Active; 'I' for Inactive)
REMARK    1  A    between atoms: C_2  and  O_3 
REMARK    2  A    between atoms: C_2  and  C_33 
REMARK    3  A    between atoms: O_3  and  C_4 
REMARK    4  A    between atoms: C_6  and  N_7 
REMARK    5  A    between atoms: C_20  and  C_21 
REMARK       I    between atoms: C_21  and  N_23 
REMARK    6  A    between atoms: N_23  and  C_24 
REMARK    7  A    between atoms: C_29  and  C_30 
ROOT
ATOM      1  C   UNL d   1     -24.583  23.327  22.629  0.00  0.00     0.087 A 
ATOM      2  C   UNL d   1     -25.837  22.784  22.851  0.00  0.00     0.071 A 
ATOM      3  C   UNL d   1     -26.650  23.298  23.852  0.00  0.00     0.088 A 
ATOM      4  C   UNL d   1     -26.211  24.367  24.632  0.00  0.00     0.064 A 
ATOM      5 CL   UNL d   1     -27.239  25.009  25.876  0.00  0.00    -0.082 Cl
ATOM      6  C   UNL d   1     -24.964  24.911  24.424  0.00  0.00     0.046 A 
ATOM      7  C   UNL d   1     -24.138  24.398  23.418  0.00  0.00     0.067 A 
ENDROOT
BRANCH   7   8
ATOM      8  C   UNL d   1     -22.805  24.982  23.188  0.00  0.00     0.259 C 
ATOM      9  O   UNL d   1     -22.696  26.020  22.564  0.00  0.00    -0.267 OA
ATOM     10  N   UNL d   1     -21.707  24.365  23.667  0.00  0.00    -0.322 N 
ATOM     11  H   UNL d   1     -21.785  23.495  24.091  0.00  0.00     0.169 HD
BRANCH  10  12
ATOM     12  C   UNL d   1     -20.455  24.977  23.554  0.00  0.00     0.046 A 
ATOM     13  C   UNL d   1     -20.030  25.876  24.524  0.00  0.00     0.032 A 
ATOM     14  C   UNL d   1     -18.792  26.479  24.409  0.00  0.00     0.015 A 
ATOM     15  C   UNL d   1     -17.978  26.189  23.330  0.00  0.00     0.001 A 
ATOM     16  C   UNL d   1     -18.399  25.295  22.361  0.00  0.00     0.002 A 
ATOM     17  C   UNL d   1     -19.632  24.684  22.474  0.00  0.00     0.030 A 
BRANCH  13  18
ATOM     18  C   UNL d   1     -20.916  26.191  25.700  0.00  0.00     0.389 C 
ATOM     19  F   UNL d   1     -20.147  26.226  26.868  0.00  0.00    -0.209 F 
ATOM     20  F   UNL d   1     -21.524  27.435  25.505  0.00  0.00    -0.209 F 
ENDBRANCH  13  18
ENDBRANCH  10  12
ENDBRANCH   7   8
BRANCH   1  21
ATOM     21  O   UNL d   1     -23.787  22.825  21.651  0.00  0.00    -0.336 OA
BRANCH  21  22
ATOM     22  C   UNL d   1     -23.914  23.401  20.350  0.00  0.00     0.232 C 
ATOM     23  C   UNL d   1     -22.536  23.834  19.846  0.00  0.00     0.049 C 
BRANCH  22  24
ATOM     24  C   UNL d   1     -24.507  22.367  19.391  0.00  0.00     0.413 C 
ATOM     25  F   UNL d   1     -23.679  21.241  19.350  0.00  0.00    -0.168 F 
ATOM     26  F   UNL d   1     -25.780  21.994  19.836  0.00  0.00    -0.168 F 
ATOM     27  F   UNL d   1     -24.604  22.922  18.110  0.00  0.00    -0.168 F 
ENDBRANCH  22  24
ENDBRANCH  21  22
ENDBRANCH   1  21
BRANCH   3  28
ATOM     28  N   UNL d   1     -27.913  22.748  24.073  0.00  0.00    -0.179 N 
ATOM     29  C   UNL d   1     -28.287  22.005  25.136  0.00  0.00     0.351 A 
ATOM     30  N   UNL d   1     -29.586  21.700  24.977  0.00  0.00    -0.284 N 
ATOM     31  O   UNL d   1     -27.578  21.670  26.068  0.00  0.00    -0.244 OA
ATOM     32  C   UNL d   1     -30.012  22.231  23.775  0.00  0.00     0.131 A 
ATOM     33  C   UNL d   1     -30.450  20.957  25.900  0.00  0.00     0.135 C 
ATOM     34  N   UNL d   1     -29.029  22.863  23.229  0.00  0.00    -0.149 NA
ATOM     35  C   UNL d   1     -31.411  22.062  23.232  0.00  0.00     0.081 C 
ATOM     36  C   UNL d   1     -32.323  21.643  24.393  0.00  0.00     0.009 C 
ATOM     37  C   UNL d   1     -31.681  20.464  25.133  0.00  0.00     0.021 C 
ENDBRANCH   3  28
TORSDOF 7
ENDMDL
