MODEL 1
REMARK VINA RESULT:     -10.1      0.000      0.000
REMARK  4 active torsions:
REMARK  status: ('A' for Active; 'I' for Inactive)
REMARK    1  A    between atoms: C_6  and  C_7 
REMARK    2  A    between atoms: C_7  and  O_9 
REMARK    3  A    between atoms: C_10  and  O_11 
REMARK    4  A    between atoms: C_12  and  C_13 
ROOT
ATOM      1  C   UNL d   1     -33.938  21.938  21.025  0.00  0.00     0.049 C 
ATOM      2  C   UNL d   1     -32.872  21.827  22.085  0.00  0.00    -0.054 A 
ATOM      3  C   UNL d   1     -33.233  21.479  23.384  0.00  0.00     0.008 A 
ATOM      4  C   UNL d   1     -32.290  21.372  24.365  0.00  0.00     0.015 A 
ATOM      5  C   UNL d   1     -30.947  21.615  24.062  0.00  0.00     0.013 A 
ATOM      6  C   UNL d   1     -29.902  21.506  25.083  0.00  0.00     0.085 A 
ATOM      7  C   UNL d   1     -28.592  21.774  24.687  0.00  0.00     0.113 A 
ATOM      8  C   UNL d   1     -28.336  22.119  23.342  0.00  0.00     0.102 A 
ATOM      9  N   UNL d   1     -29.293  22.205  22.447  0.00  0.00    -0.244 NA
ATOM     10  C   UNL d   1     -30.575  21.970  22.742  0.00  0.00     0.075 A 
ATOM     11  C   UNL d   1     -31.574  22.071  21.757  0.00  0.00    -0.026 A 
ATOM     12  C   UNL d   1     -31.208  22.447  20.345  0.00  0.00     0.051 C 
ENDROOT
BRANCH   8  13
ATOM     13  C   UNL d   1     -26.940  22.396  22.928  0.00  0.00    -0.004 A 
ATOM     14  C   UNL d   1     -26.370  21.684  21.873  0.00  0.00     0.015 A 
ATOM     15  C   UNL d   1     -25.070  21.945  21.490  0.00  0.00     0.024 A 
ATOM     16  C   UNL d   1     -24.333  22.912  22.151  0.00  0.00     0.034 A 
ATOM     17  C   UNL d   1     -24.895  23.622  23.199  0.00  0.00     0.024 A 
ATOM     18 CL   UNL d   1     -22.699  23.238  21.664  0.00  0.00    -0.084 Cl
ATOM     19  C   UNL d   1     -26.194  23.373  23.586  0.00  0.00     0.015 A 
ENDBRANCH   8  13
BRANCH   7  20
ATOM     20  O   UNL d   1     -27.576  21.696  25.580  0.00  0.00    -0.357 OA
ATOM     21  H   UNL d   1     -26.890  21.057  25.341  0.00  0.00     0.217 HD
ENDBRANCH   7  20
BRANCH   6  22
ATOM     22  C   UNL d   1     -30.223  21.135  26.472  0.00  0.00     0.180 C 
ATOM     23  O   UNL d   1     -29.887  21.861  27.388  0.00  0.00    -0.646 OA
BRANCH  22  24
ATOM     24  O   UNL d   1     -30.889  19.991  26.728  0.00  0.00    -0.773 OA
ATOM     25  H   UNL d   1     -30.401  19.165  26.612  0.00  0.00     0.167 HD
ENDBRANCH  22  24
ENDBRANCH   6  22
TORSDOF 4
ENDMDL
