MODEL 1
REMARK VINA RESULT:     -12.4      0.000      0.000
REMARK  4 active torsions:
REMARK  status: ('A' for Active; 'I' for Inactive)
REMARK    1  A    between atoms: C_7  and  C_8 
REMARK    2  A    between atoms: C_11  and  C_12 
REMARK    3  A    between atoms: C_23  and  C_24 
REMARK    4  A    between atoms: C_24  and  O_26 
ROOT
ATOM      1  C   UNL d   1     -34.313  21.200  22.196  0.00  0.00     0.048 C 
ATOM      2  C   UNL d   1     -32.851  21.567  22.193  0.00  0.00    -0.061 A 
ATOM      3  C   UNL d   1     -32.256  22.012  21.015  0.00  0.00     0.009 A 
ATOM      4  C   UNL d   1     -30.939  22.351  20.977  0.00  0.00     0.033 A 
ATOM      5  C   UNL d   1     -30.160  22.252  22.145  0.00  0.00     0.069 A 
ATOM      6  N   UNL d   1     -28.866  22.576  22.140  0.00  0.00    -0.247 NA
ATOM      7  C   UNL d   1     -28.113  22.493  23.216  0.00  0.00     0.074 A 
ATOM      8  C   UNL d   1     -28.617  22.050  24.449  0.00  0.00    -0.015 A 
ATOM      9  C   UNL d   1     -27.714  21.965  25.654  0.00  0.00     0.052 C 
ATOM     10  C   UNL d   1     -29.954  21.697  24.552  0.00  0.00     0.058 A 
ATOM     11  C   UNL d   1     -30.771  21.798  23.341  0.00  0.00     0.011 A 
ATOM     12  C   UNL d   1     -32.128  21.458  23.343  0.00  0.00     0.021 A 
ENDROOT
BRANCH   7  13
ATOM     13  C   UNL d   1     -26.684  22.874  23.122  0.00  0.00    -0.007 A 
ATOM     14  C   UNL d   1     -26.231  24.039  23.741  0.00  0.00     0.014 A 
ATOM     15  C   UNL d   1     -24.901  24.390  23.657  0.00  0.00     0.013 A 
ATOM     16  C   UNL d   1     -24.012  23.587  22.945  0.00  0.00    -0.023 A 
ATOM     17  C   UNL d   1     -24.465  22.422  22.327  0.00  0.00     0.013 A 
ATOM     18  C   UNL d   1     -25.792  22.067  22.414  0.00  0.00     0.014 A 
BRANCH  16  19
ATOM     19  C   UNL d   1     -22.582  23.969  22.850  0.00  0.00     0.015 A 
ATOM     20  C   UNL d   1     -22.047  24.416  21.642  0.00  0.00     0.136 A 
ATOM     21  N   UNL d   1     -20.776  24.758  21.557  0.00  0.00    -0.248 NA
ATOM     22 CL   UNL d   1     -23.062  24.527  20.239  0.00  0.00    -0.061 Cl
ATOM     23  C   UNL d   1     -19.967  24.690  22.597  0.00  0.00     0.118 A 
ATOM     24  C   UNL d   1     -20.421  24.256  23.828  0.00  0.00     0.020 A 
ATOM     25  C   UNL d   1     -21.748  23.887  23.969  0.00  0.00     0.017 A 
ENDBRANCH  16  19
ENDBRANCH   7  13
BRANCH  10  26
ATOM     26  C   UNL d   1     -30.531  21.230  25.830  0.00  0.00     0.177 C 
ATOM     27  O   UNL d   1     -31.244  21.968  26.481  0.00  0.00    -0.646 OA
BRANCH  26  28
ATOM     28  O   UNL d   1     -30.265  19.987  26.275  0.00  0.00    -0.773 OA
ATOM     29  H   UNL d   1     -29.477  19.876  26.825  0.00  0.00     0.167 HD
ENDBRANCH  26  28
ENDBRANCH  10  26
TORSDOF 4
ENDMDL
