MODEL 1
REMARK VINA RESULT:      -9.9      0.000      0.000
REMARK  9 active torsions:
REMARK  status: ('A' for Active; 'I' for Inactive)
REMARK    1  A    between atoms: C_2  and  N_3 
REMARK    2  A    between atoms: C_4  and  C_5 
REMARK    3  A    between atoms: C_5  and  O_6 
REMARK    4  A    between atoms: N_8  and  C_9 
REMARK    5  A    between atoms: C_12  and  C_13 
REMARK       I    between atoms: C_13  and  N_15 
REMARK    6  A    between atoms: N_15  and  C_16 
REMARK    7  A    between atoms: C_24  and  O_25 
REMARK    8  A    between atoms: O_25  and  C_26 
REMARK    9  A    between atoms: C_26  and  C_28 
ROOT
ATOM      1  C   UNL d   1     -26.841  23.493  23.666  0.00  0.00     0.066 A 
ATOM      2  C   UNL d   1     -26.576  24.601  24.466  0.00  0.00     0.033 A 
ATOM      3  C   UNL d   1     -25.348  25.197  24.435  0.00  0.00     0.022 A 
ATOM      4  C   UNL d   1     -24.347  24.696  23.595  0.00  0.00     0.065 A 
ATOM      5  C   UNL d   1     -24.612  23.584  22.783  0.00  0.00     0.087 A 
ATOM      6  C   UNL d   1     -25.858  22.984  22.827  0.00  0.00     0.069 A 
ENDROOT
BRANCH   4   7
ATOM      7  C   UNL d   1     -23.022  25.340  23.560  0.00  0.00     0.259 C 
ATOM      8  O   UNL d   1     -22.885  26.418  23.013  0.00  0.00    -0.267 OA
ATOM      9  N   UNL d   1     -21.963  24.735  24.131  0.00  0.00    -0.319 N 
ATOM     10  H   UNL d   1     -22.054  23.841  24.495  0.00  0.00     0.169 HD
BRANCH   9  11
ATOM     11  C   UNL d   1     -20.732  25.398  24.201  0.00  0.00     0.096 A 
ATOM     12  C   UNL d   1     -19.717  25.080  23.307  0.00  0.00     0.064 A 
ATOM     13  C   UNL d   1     -18.502  25.737  23.380  0.00  0.00     0.026 A 
ATOM     14 CL   UNL d   1     -19.975  23.861  22.099  0.00  0.00    -0.082 Cl
ATOM     15  C   UNL d   1     -18.295  26.707  24.342  0.00  0.00     0.005 A 
ATOM     16  C   UNL d   1     -19.304  27.031  25.232  0.00  0.00     0.045 A 
ATOM     17  C   UNL d   1     -20.520  26.375  25.168  0.00  0.00     0.144 A 
ATOM     18  F   UNL d   1     -21.503  26.688  26.040  0.00  0.00    -0.204 F 
ENDBRANCH   9  11
ENDBRANCH   4   7
BRANCH   5  19
ATOM     19  O   UNL d   1     -23.649  23.094  21.962  0.00  0.00    -0.336 OA
BRANCH  19  20
ATOM     20  C   UNL d   1     -23.833  23.289  20.558  0.00  0.00     0.232 C 
ATOM     21  C   UNL d   1     -22.498  23.667  19.915  0.00  0.00     0.049 C 
BRANCH  20  22
ATOM     22  C   UNL d   1     -24.354  21.995  19.929  0.00  0.00     0.413 C 
ATOM     23  F   UNL d   1     -23.630  21.718  18.765  0.00  0.00    -0.168 F 
ATOM     24  F   UNL d   1     -24.200  20.941  20.836  0.00  0.00    -0.168 F 
ATOM     25  F   UNL d   1     -25.709  22.143  19.611  0.00  0.00    -0.168 F 
ENDBRANCH  20  22
ENDBRANCH  19  20
ENDBRANCH   5  19
BRANCH   1  26
ATOM     26  N   UNL d   1     -28.101  22.892  23.705  0.00  0.00    -0.181 N 
ATOM     27  N   UNL d   1     -29.116  23.028  22.748  0.00  0.00    -0.147 NA
ATOM     28  C   UNL d   1     -30.130  22.321  23.134  0.00  0.00     0.154 A 
ATOM     29  N   UNL d   1     -29.820  21.715  24.326  0.00  0.00    -0.283 N 
ATOM     30  C   UNL d   1     -28.564  22.068  24.668  0.00  0.00     0.351 A 
ATOM     31  O   UNL d   1     -27.962  21.712  25.664  0.00  0.00    -0.244 OA
BRANCH  28  32
ATOM     32  C   UNL d   1     -31.438  22.187  22.395  0.00  0.00     0.244 C 
BRANCH  32  33
ATOM     33  O   UNL d   1     -31.200  22.267  20.989  0.00  0.00    -0.393 OA
ATOM     34  H   UNL d   1     -30.348  21.903  20.712  0.00  0.00     0.209 HD
ENDBRANCH  32  33
ENDBRANCH  28  32
BRANCH  29  35
ATOM     35  C   UNL d   1     -30.700  20.829  25.093  0.00  0.00     0.131 C 
ATOM     36  C   UNL d   1     -31.706  21.669  25.882  0.00  0.00     0.027 C 
ENDBRANCH  29  35
ENDBRANCH   1  26
TORSDOF 9
ENDMDL
