MODEL 1
REMARK VINA RESULT:     -11.3      0.000      0.000
REMARK  5 active torsions:
REMARK  status: ('A' for Active; 'I' for Inactive)
REMARK    1  A    between atoms: C_2  and  O_3 
REMARK    2  A    between atoms: C_2  and  C_4 
REMARK    3  A    between atoms: C_6  and  C_7 
REMARK    4  A    between atoms: C_10  and  C_11 
REMARK    5  A    between atoms: C_16  and  C_17 
ROOT
ATOM      1  C   UNL d   1     -26.355  22.954  23.138  0.00  0.00    -0.007 A 
ATOM      2  C   UNL d   1     -25.907  24.141  23.719  0.00  0.00     0.014 A 
ATOM      3  C   UNL d   1     -24.574  24.482  23.644  0.00  0.00     0.013 A 
ATOM      4  C   UNL d   1     -23.676  23.648  22.980  0.00  0.00    -0.024 A 
ATOM      5  C   UNL d   1     -24.125  22.464  22.394  0.00  0.00     0.013 A 
ATOM      6  C   UNL d   1     -25.457  22.119  22.474  0.00  0.00     0.014 A 
ENDROOT
BRANCH   1   7
ATOM      7  C   UNL d   1     -27.787  22.583  23.222  0.00  0.00     0.068 A 
ATOM      8  C   UNL d   1     -28.302  22.144  24.452  0.00  0.00     0.051 A 
ATOM      9  C   UNL d   1     -29.642  21.794  24.544  0.00  0.00     0.052 A 
ATOM     10  C   UNL d   1     -30.451  21.906  23.329  0.00  0.00     0.010 A 
ATOM     11  C   UNL d   1     -29.829  22.360  22.138  0.00  0.00     0.068 A 
ATOM     12  C   UNL d   1     -31.809  21.576  23.322  0.00  0.00     0.015 A 
ATOM     13  N   UNL d   1     -28.533  22.676  22.142  0.00  0.00    -0.247 NA
ATOM     14  C   UNL d   1     -30.600  22.470  20.967  0.00  0.00     0.032 A 
ATOM     15  C   UNL d   1     -31.920  22.141  20.995  0.00  0.00     0.002 A 
ATOM     16  C   UNL d   1     -32.526  21.694  22.168  0.00  0.00     0.001 A 
BRANCH   9  17
ATOM     17  C   UNL d   1     -30.230  21.326  25.816  0.00  0.00     0.177 C 
ATOM     18  O   UNL d   1     -30.868  22.093  26.510  0.00  0.00    -0.646 OA
BRANCH  17  19
ATOM     19  O   UNL d   1     -30.056  20.048  26.209  0.00  0.00    -0.773 OA
ATOM     20  H   UNL d   1     -30.826  19.595  26.579  0.00  0.00     0.167 HD
ENDBRANCH  17  19
ENDBRANCH   9  17
ENDBRANCH   1   7
BRANCH   4  21
ATOM     21  C   UNL d   1     -22.243  24.019  22.895  0.00  0.00     0.008 A 
ATOM     22  C   UNL d   1     -21.703  24.492  21.701  0.00  0.00     0.151 A 
ATOM     23  N   UNL d   1     -20.429  24.822  21.625  0.00  0.00    -0.255 NA
ATOM     24  C   UNL d   1     -19.621  24.722  22.661  0.00  0.00     0.117 A 
ATOM     25  C   UNL d   1     -20.081  24.262  23.882  0.00  0.00     0.020 A 
ATOM     26  C   UNL d   1     -21.412  23.907  24.014  0.00  0.00     0.016 A 
BRANCH  22  27
ATOM     27  C   UNL d   1     -22.584  24.626  20.485  0.00  0.00     0.435 C 
ATOM     28  F   UNL d   1     -23.736  25.345  20.821  0.00  0.00    -0.165 F 
ATOM     29  F   UNL d   1     -21.888  25.305  19.477  0.00  0.00    -0.165 F 
ATOM     30  F   UNL d   1     -22.944  23.355  20.026  0.00  0.00    -0.165 F 
ENDBRANCH  22  27
ENDBRANCH   4  21
TORSDOF 5
ENDMDL
