MODEL 1
REMARK VINA RESULT:      -8.6      0.000      0.000
REMARK  13 active torsions:
REMARK  status: ('A' for Active; 'I' for Inactive)
REMARK    1  A    between atoms: C_2  and  N_3 
REMARK    2  A    between atoms: C_4  and  C_5 
REMARK    3  A    between atoms: C_5  and  O_6 
REMARK    4  A    between atoms: N_8  and  C_9 
REMARK    5  A    between atoms: C_11  and  O_12 
REMARK    6  A    between atoms: O_12  and  C_13 
REMARK    7  A    between atoms: C_13  and  C_15 
REMARK    8  A    between atoms: C_20  and  O_21 
REMARK    9  A    between atoms: O_21  and  C_22 
REMARK   10  A    between atoms: C_27  and  O_28 
REMARK   11  A    between atoms: O_28  and  C_29 
REMARK   12  A    between atoms: C_29  and  C_30 
REMARK   13  A    between atoms: C_30  and  O_31 
ROOT
ATOM      1  C   UNL d   1     -27.976  22.493  24.044  0.00  0.00     0.067 A 
ATOM      2  C   UNL d   1     -27.111  21.805  23.190  0.00  0.00     0.069 A 
ATOM      3  C   UNL d   1     -25.916  22.350  22.811  0.00  0.00     0.087 A 
ATOM      4  C   UNL d   1     -25.552  23.624  23.286  0.00  0.00     0.061 A 
ATOM      5  C   UNL d   1     -24.332  24.231  22.925  0.00  0.00     0.183 A 
ATOM      6  N   UNL d   1     -24.032  25.426  23.394  0.00  0.00    -0.236 NA
ATOM      7  C   UNL d   1     -24.837  26.100  24.206  0.00  0.00     0.120 A 
ATOM      8  C   UNL d   1     -26.034  25.599  24.611  0.00  0.00     0.032 A 
ATOM      9  C   UNL d   1     -26.426  24.323  24.157  0.00  0.00    -0.015 A 
ATOM     10  C   UNL d   1     -27.645  23.744  24.526  0.00  0.00     0.044 A 
ENDROOT
BRANCH   5  11
ATOM     11  O   UNL d   1     -23.471  23.589  22.100  0.00  0.00    -0.286 OA
BRANCH  11  12
ATOM     12  C   UNL d   1     -22.199  24.062  22.011  0.00  0.00     0.141 A 
ATOM     13  C   UNL d   1     -21.332  23.927  23.084  0.00  0.00     0.104 A 
ATOM     14  C   UNL d   1     -20.035  24.411  22.990  0.00  0.00     0.093 A 
ATOM     15 CL   UNL d   1     -21.869  23.154  24.543  0.00  0.00    -0.078 Cl
ATOM     16  C   UNL d   1     -19.608  25.028  21.824  0.00  0.00     0.041 A 
ATOM     17  C   UNL d   1     -20.475  25.161  20.754  0.00  0.00     0.048 A 
ATOM     18  C   UNL d   1     -21.766  24.675  20.842  0.00  0.00     0.152 A 
ATOM     19  F   UNL d   1     -22.608  24.802  19.793  0.00  0.00    -0.203 F 
BRANCH  14  20
ATOM     20  O   UNL d   1     -19.183  24.281  24.041  0.00  0.00    -0.347 OA
BRANCH  20  21
ATOM     21  C   UNL d   1     -18.611  25.481  24.566  0.00  0.00     0.201 C 
BRANCH  21  22
ATOM     22  C   UNL d   1     -19.506  26.030  25.678  0.00  0.00     0.193 C 
BRANCH  22  23
ATOM     23  O   UNL d   1     -20.019  27.306  25.290  0.00  0.00    -0.394 OA
ATOM     24  C   UNL d   1     -21.424  27.314  25.032  0.00  0.00     0.201 C 
ENDBRANCH  22  23
ENDBRANCH  21  22
ENDBRANCH  20  21
ENDBRANCH  14  20
ENDBRANCH  11  12
ENDBRANCH   5  11
BRANCH   3  25
ATOM     25  O   UNL d   1     -25.087  21.668  21.980  0.00  0.00    -0.336 OA
BRANCH  25  26
ATOM     26  C   UNL d   1     -25.582  21.365  20.675  0.00  0.00     0.232 C 
ATOM     27  C   UNL d   1     -27.069  21.715  20.599  0.00  0.00     0.049 C 
BRANCH  26  28
ATOM     28  C   UNL d   1     -24.811  22.182  19.635  0.00  0.00     0.413 C 
ATOM     29  F   UNL d   1     -25.060  23.544  19.836  0.00  0.00    -0.168 F 
ATOM     30  F   UNL d   1     -23.441  21.934  19.769  0.00  0.00    -0.168 F 
ATOM     31  F   UNL d   1     -25.229  21.816  18.352  0.00  0.00    -0.168 F 
ENDBRANCH  26  28
ENDBRANCH  25  26
ENDBRANCH   3  25
BRANCH   1  32
ATOM     32  N   UNL d   1     -29.192  21.909  24.414  0.00  0.00    -0.181 N 
ATOM     33  N   UNL d   1     -29.383  20.961  25.429  0.00  0.00    -0.147 NA
ATOM     34  C   UNL d   1     -30.642  20.663  25.470  0.00  0.00     0.154 A 
ATOM     35  N   UNL d   1     -31.301  21.388  24.507  0.00  0.00    -0.283 N 
ATOM     36  C   UNL d   1     -30.399  22.159  23.865  0.00  0.00     0.351 A 
ATOM     37  O   UNL d   1     -30.631  22.934  22.956  0.00  0.00    -0.244 OA
BRANCH  34  38
ATOM     38  C   UNL d   1     -31.280  19.681  26.417  0.00  0.00     0.244 C 
BRANCH  38  39
ATOM     39  O   UNL d   1     -30.904  18.352  26.051  0.00  0.00    -0.393 OA
ATOM     40  H   UNL d   1     -31.173  18.099  25.157  0.00  0.00     0.209 HD
ENDBRANCH  38  39
ENDBRANCH  34  38
BRANCH  35  41
ATOM     41  C   UNL d   1     -32.738  21.339  24.229  0.00  0.00     0.131 C 
ATOM     42  C   UNL d   1     -33.047  20.120  23.357  0.00  0.00     0.027 C 
ENDBRANCH  35  41
ENDBRANCH   1  32
TORSDOF 13
ENDMDL
