MODEL 1
REMARK VINA RESULT:     -10.7      0.000      0.000
REMARK  7 active torsions:
REMARK  status: ('A' for Active; 'I' for Inactive)
REMARK    1  A    between atoms: C_2  and  O_3 
REMARK    2  A    between atoms: C_2  and  C_4 
REMARK    3  A    between atoms: C_9  and  N_10 
REMARK    4  A    between atoms: N_10  and  C_11 
REMARK    5  A    between atoms: C_15  and  C_16 
REMARK    6  A    between atoms: C_20  and  O_21 
REMARK    7  A    between atoms: O_21  and  C_22 
ROOT
ATOM      1  C   UNL d   1     -29.759  22.090  24.211  0.00  0.00     0.112 A 
ATOM      2  C   UNL d   1     -28.559  22.163  24.911  0.00  0.00     0.146 A 
ATOM      3  F   UNL d   1     -28.561  22.123  26.262  0.00  0.00    -0.204 F 
ATOM      4  C   UNL d   1     -27.365  22.272  24.226  0.00  0.00     0.057 A 
ATOM      5  C   UNL d   1     -27.364  22.319  22.833  0.00  0.00    -0.020 A 
ATOM      6  C   UNL d   1     -28.569  22.251  22.133  0.00  0.00     0.057 A 
ATOM      7  C   UNL d   1     -29.760  22.136  22.821  0.00  0.00     0.146 A 
ATOM      8  F   UNL d   1     -30.927  22.070  22.144  0.00  0.00    -0.204 F 
ENDROOT
BRANCH   1   9
ATOM      9  N   UNL d   1     -30.968  21.974  24.908  0.00  0.00    -0.335 N 
ATOM     10  H   UNL d   1     -31.511  22.762  25.070  0.00  0.00     0.168 HD
BRANCH   9  11
ATOM     11  C   UNL d   1     -31.388  20.739  25.364  0.00  0.00     0.144 A 
ATOM     12  C   UNL d   1     -32.514  20.126  24.786  0.00  0.00     0.083 A 
ATOM     13  C   UNL d   1     -32.921  18.874  25.266  0.00  0.00     0.024 A 
ATOM     14  C   UNL d   1     -32.194  18.296  26.291  0.00  0.00     0.020 A 
ATOM     15  C   UNL d   1     -31.097  18.961  26.809  0.00  0.00     0.119 A 
ATOM     16  N   UNL d   1     -30.729  20.138  26.344  0.00  0.00    -0.242 NA
BRANCH  12  17
ATOM     17  C   UNL d   1     -33.252  20.787  23.697  0.00  0.00     0.180 C 
ATOM     18  O   UNL d   1     -33.615  20.145  22.731  0.00  0.00    -0.646 OA
BRANCH  17  19
ATOM     19  O   UNL d   1     -33.524  22.105  23.770  0.00  0.00    -0.773 OA
ATOM     20  H   UNL d   1     -34.170  22.455  23.142  0.00  0.00     0.167 HD
ENDBRANCH  17  19
ENDBRANCH  12  17
ENDBRANCH   9  11
ENDBRANCH   1   9
BRANCH   5  21
ATOM     21  C   UNL d   1     -26.083  22.442  22.095  0.00  0.00    -0.023 A 
ATOM     22  C   UNL d   1     -25.025  23.160  22.647  0.00  0.00     0.049 A 
ATOM     23  C   UNL d   1     -23.832  23.271  21.954  0.00  0.00     0.070 A 
ATOM     24  C   UNL d   1     -23.692  22.667  20.712  0.00  0.00     0.037 A 
ATOM     25  C   UNL d   1     -24.741  21.954  20.163  0.00  0.00     0.004 A 
ATOM     26  C   UNL d   1     -25.932  21.835  20.849  0.00  0.00     0.012 A 
BRANCH  23  27
ATOM     27  O   UNL d   1     -22.797  23.970  22.490  0.00  0.00    -0.346 OA
BRANCH  27  28
ATOM     28  C   UNL d   1     -23.118  24.950  23.479  0.00  0.00     0.129 C 
ATOM     29  C   UNL d   1     -21.888  25.518  24.207  0.00  0.00     0.032 C 
ATOM     30  C   UNL d   1     -22.575  26.891  24.134  0.00  0.00     0.005 C 
ATOM     31  C   UNL d   1     -23.328  26.361  22.901  0.00  0.00     0.032 C 
ENDBRANCH  27  28
ENDBRANCH  23  27
ENDBRANCH   5  21
TORSDOF 7
ENDMDL
