MODEL 1
REMARK VINA RESULT:     -10.7      0.000      0.000
REMARK  7 active torsions:
REMARK  status: ('A' for Active; 'I' for Inactive)
REMARK    1  A    between atoms: C_2  and  C_3 
REMARK    2  A    between atoms: C_3  and  C_4 
REMARK    3  A    between atoms: C_4  and  O_6 
REMARK    4  A    between atoms: O_6  and  C_7 
REMARK    5  A    between atoms: C_9  and  N_10 
REMARK    6  A    between atoms: C_23  and  C_24 
REMARK       I    between atoms: C_24  and  N_26 
REMARK    7  A    between atoms: N_26  and  C_27 
ROOT
ATOM      1  C   UNL d   1     -26.182  23.267  23.431  0.00  0.00     0.087 A 
ATOM      2  C   UNL d   1     -27.558  23.111  23.425  0.00  0.00     0.073 A 
ATOM      3  C   UNL d   1     -28.158  22.269  22.498  0.00  0.00     0.104 A 
ATOM      4  C   UNL d   1     -27.379  21.578  21.570  0.00  0.00     0.146 A 
ATOM      5  F   UNL d   1     -27.970  20.761  20.672  0.00  0.00    -0.204 F 
ATOM      6  C   UNL d   1     -26.010  21.725  21.569  0.00  0.00     0.064 A 
ATOM      7  C   UNL d   1     -25.398  22.575  22.496  0.00  0.00     0.068 A 
ENDROOT
BRANCH   7   8
ATOM      8  C   UNL d   1     -23.935  22.740  22.493  0.00  0.00     0.259 C 
ATOM      9  O   UNL d   1     -23.213  21.764  22.564  0.00  0.00    -0.267 OA
ATOM     10  N   UNL d   1     -23.396  23.973  22.411  0.00  0.00    -0.322 N 
ATOM     11  H   UNL d   1     -23.969  24.755  22.427  0.00  0.00     0.169 HD
BRANCH  10  12
ATOM     12  C   UNL d   1     -22.009  24.123  22.303  0.00  0.00     0.043 A 
ATOM     13  C   UNL d   1     -21.414  24.211  21.050  0.00  0.00    -0.035 A 
ATOM     14  C   UNL d   1     -20.046  24.360  20.946  0.00  0.00     0.012 A 
ATOM     15  C   UNL d   1     -22.263  24.145  19.807  0.00  0.00     0.050 C 
ATOM     16  C   UNL d   1     -19.265  24.421  22.086  0.00  0.00     0.043 A 
ATOM     17  C   UNL d   1     -19.855  24.333  23.336  0.00  0.00     0.118 A 
ATOM     18  C   UNL d   1     -21.226  24.191  23.447  0.00  0.00     0.072 A 
ATOM     19  F   UNL d   1     -19.089  24.394  24.449  0.00  0.00    -0.206 F 
ENDBRANCH  10  12
ENDBRANCH   7   8
BRANCH   1  20
ATOM     20  O   UNL d   1     -25.595  24.089  24.337  0.00  0.00    -0.345 OA
BRANCH  20  21
ATOM     21  C   UNL d   1     -25.895  25.482  24.239  0.00  0.00     0.124 C 
ATOM     22  C   UNL d   1     -26.305  26.013  25.614  0.00  0.00     0.040 C 
BRANCH  21  23
ATOM     23  C   UNL d   1     -24.660  26.238  23.748  0.00  0.00     0.032 C 
BRANCH  23  24
ATOM     24  C   UNL d   1     -23.685  26.433  24.910  0.00  0.00    -0.002 C 
ATOM     25  C   UNL d   1     -22.455  27.201  24.422  0.00  0.00     0.005 C 
ENDBRANCH  23  24
ENDBRANCH  21  23
ENDBRANCH  20  21
ENDBRANCH   1  20
BRANCH   3  26
ATOM     26  N   UNL d   1     -29.546  22.115  22.495  0.00  0.00    -0.178 N 
ATOM     27  C   UNL d   1     -30.321  21.819  23.561  0.00  0.00     0.351 A 
ATOM     28  N   UNL d   1     -31.595  21.790  23.135  0.00  0.00    -0.284 N 
ATOM     29  O   UNL d   1     -29.936  21.616  24.699  0.00  0.00    -0.244 OA
ATOM     30  C   UNL d   1     -31.603  22.037  21.777  0.00  0.00     0.131 A 
ATOM     31  C   UNL d   1     -32.801  21.567  23.940  0.00  0.00     0.135 C 
ATOM     32  N   UNL d   1     -30.394  22.248  21.384  0.00  0.00    -0.149 NA
ATOM     33  C   UNL d   1     -32.857  22.035  20.933  0.00  0.00     0.081 C 
ATOM     34  C   UNL d   1     -34.062  22.189  21.871  0.00  0.00     0.009 C 
ATOM     35  C   UNL d   1     -33.947  21.165  23.005  0.00  0.00     0.021 C 
ENDBRANCH   3  26
TORSDOF 7
ENDMDL
