MODEL 1
REMARK VINA RESULT:     -10.9      0.000      0.000
REMARK  5 active torsions:
REMARK  status: ('A' for Active; 'I' for Inactive)
REMARK    1  A    between atoms: C_5  and  N_6 
REMARK    2  A    between atoms: N_6  and  C_7 
REMARK    3  A    between atoms: C_10  and  C_11 
REMARK    4  A    between atoms: C_21  and  C_22 
REMARK    5  A    between atoms: C_22  and  O_24 
ROOT
ATOM      1  C   UNL d   1     -26.773  22.921  23.743  0.00  0.00     0.050 A 
ATOM      2  C   UNL d   1     -26.113  22.066  22.866  0.00  0.00     0.146 A 
ATOM      3  N   UNL d   1     -24.980  22.427  22.301  0.00  0.00    -0.257 NA
ATOM      4  C   UNL d   1     -24.427  23.609  22.538  0.00  0.00     0.074 A 
ATOM      5  C   UNL d   1     -25.028  24.514  23.411  0.00  0.00    -0.030 A 
ATOM      6  C   UNL d   1     -24.391  25.853  23.680  0.00  0.00     0.050 C 
ATOM      7  C   UNL d   1     -26.219  24.170  24.021  0.00  0.00     0.040 A 
ENDROOT
BRANCH   1   8
ATOM      8  N   UNL d   1     -27.974  22.532  24.338  0.00  0.00    -0.354 N 
ATOM      9  H   UNL d   1     -28.011  22.362  25.291  0.00  0.00     0.166 HD
BRANCH   8  10
ATOM     10  C   UNL d   1     -29.118  22.388  23.563  0.00  0.00     0.049 A 
ATOM     11  C   UNL d   1     -29.095  22.721  22.214  0.00  0.00     0.031 A 
ATOM     12  C   UNL d   1     -30.231  22.573  21.446  0.00  0.00     0.009 A 
ATOM     13  C   UNL d   1     -31.405  22.102  22.011  0.00  0.00    -0.061 A 
ATOM     14  C   UNL d   1     -32.639  21.950  21.159  0.00  0.00     0.048 C 
ATOM     15  C   UNL d   1     -31.450  21.771  23.348  0.00  0.00     0.027 A 
ATOM     16  C   UNL d   1     -30.307  21.910  24.140  0.00  0.00     0.064 A 
BRANCH  16  17
ATOM     17  C   UNL d   1     -30.348  21.559  25.569  0.00  0.00     0.178 C 
ATOM     18  O   UNL d   1     -31.289  21.908  26.254  0.00  0.00    -0.646 OA
BRANCH  17  19
ATOM     19  O   UNL d   1     -29.342  20.850  26.118  0.00  0.00    -0.773 OA
ATOM     20  H   UNL d   1     -29.575  20.016  26.549  0.00  0.00     0.167 HD
ENDBRANCH  17  19
ENDBRANCH  16  17
ENDBRANCH   8  10
ENDBRANCH   1   8
BRANCH   4  21
ATOM     21  C   UNL d   1     -23.151  23.969  21.871  0.00  0.00     0.015 A 
ATOM     22  C   UNL d   1     -21.938  23.776  22.532  0.00  0.00     0.046 A 
ATOM     23  C   UNL d   1     -20.753  24.110  21.903  0.00  0.00     0.025 A 
ATOM     24 CL   UNL d   1     -21.915  23.114  24.136  0.00  0.00    -0.083 Cl
ATOM     25  C   UNL d   1     -20.771  24.643  20.628  0.00  0.00     0.002 A 
ATOM     26  C   UNL d   1     -21.973  24.841  19.971  0.00  0.00     0.001 A 
ATOM     27  C   UNL d   1     -23.161  24.507  20.586  0.00  0.00     0.015 A 
ENDBRANCH   4  21
TORSDOF 5
ENDMDL
