MODEL 1
REMARK VINA RESULT:     -10.9      0.000      0.000
REMARK  5 active torsions:
REMARK  status: ('A' for Active; 'I' for Inactive)
REMARK    1  A    between atoms: C_3  and  C_4 
REMARK    2  A    between atoms: C_4  and  N_5 
REMARK       I    between atoms: N_8  and  C_9 
REMARK    3  A    between atoms: C_9  and  C_11 
REMARK    4  A    between atoms: C_21  and  N_22 
REMARK       I    between atoms: N_22  and  C_23 
REMARK    5  A    between atoms: C_23  and  C_25 
ROOT
ATOM      1  C   UNL d   1     -24.808  23.158  23.560  0.00  0.00     0.051 C 
ATOM      2  C   UNL d   1     -24.514  23.085  22.084  0.00  0.00    -0.027 A 
ATOM      3  C   UNL d   1     -25.174  22.165  21.292  0.00  0.00    -0.022 A 
ATOM      4  C   UNL d   1     -24.909  22.101  19.937  0.00  0.00     0.009 A 
ATOM      5  C   UNL d   1     -23.975  22.949  19.370  0.00  0.00     0.003 A 
ATOM      6  C   UNL d   1     -23.308  23.868  20.157  0.00  0.00     0.030 A 
ATOM      7  C   UNL d   1     -23.575  23.938  21.519  0.00  0.00     0.041 A 
ENDROOT
BRANCH   3   8
ATOM      8  C   UNL d   1     -26.189  21.235  21.905  0.00  0.00     0.311 C 
BRANCH   8   9
ATOM      9  N   UNL d   1     -27.434  21.969  22.162  0.00  0.00     0.095 N 
ATOM     10  C   UNL d   1     -27.956  21.668  23.501  0.00  0.00     0.292 C 
ATOM     11  C   UNL d   1     -29.148  22.584  23.800  0.00  0.00     0.156 C 
ATOM     12  N   UNL d   1     -30.124  22.450  22.708  0.00  0.00    -0.348 N 
ATOM     13  C   UNL d   1     -29.647  22.601  21.325  0.00  0.00     0.156 C 
ATOM     14  C   UNL d   1     -31.422  22.194  22.967  0.00  0.00     0.224 C 
ATOM     15  C   UNL d   1     -28.435  21.685  21.124  0.00  0.00     0.292 C 
ATOM     16  O   UNL d   1     -31.798  22.072  24.114  0.00  0.00    -0.273 OA
BRANCH  14  17
ATOM     17  C   UNL d   1     -32.405  22.060  21.833  0.00  0.00     0.078 C 
ATOM     18  C   UNL d   1     -32.757  20.578  21.613  0.00  0.00     0.014 C 
ATOM     19  C   UNL d   1     -34.277  20.447  21.843  0.00  0.00     0.001 C 
ATOM     20  C   UNL d   1     -34.825  21.872  21.583  0.00  0.00     0.001 C 
ATOM     21  C   UNL d   1     -33.724  22.778  22.190  0.00  0.00     0.014 C 
ENDBRANCH  14  17
ENDBRANCH   8   9
ENDBRANCH   3   8
BRANCH   7  22
ATOM     22  N   UNL d   1     -22.902  24.866  22.318  0.00  0.00    -0.321 N 
ATOM     23  C   UNL d   1     -21.703  24.554  22.849  0.00  0.00     0.281 C 
ATOM     24  O   UNL d   1     -21.169  23.497  22.568  0.00  0.00    -0.265 OA
ATOM     25  H   UNL d   1     -23.296  25.735  22.491  0.00  0.00     0.169 HD
BRANCH  23  26
ATOM     26  C   UNL d   1     -21.036  25.493  23.774  0.00  0.00     0.167 A 
ATOM     27  S   UNL d   1     -19.299  25.582  24.039  0.00  0.00    -0.063 SA
ATOM     28  C   UNL d   1     -19.535  26.887  25.199  0.00  0.00     0.036 A 
ATOM     29  C   UNL d   1     -20.909  27.151  25.293  0.00  0.00     0.075 A 
ATOM     30  C   UNL d   1     -18.624  27.619  25.961  0.00  0.00     0.021 A 
ATOM     31  N   UNL d   1     -21.643  26.371  24.498  0.00  0.00    -0.235 NA
ATOM     32  C   UNL d   1     -21.336  28.172  26.175  0.00  0.00     0.033 A 
ATOM     33  C   UNL d   1     -20.433  28.874  26.908  0.00  0.00     0.002 A 
ATOM     34  C   UNL d   1     -19.072  28.605  26.809  0.00  0.00     0.002 A 
ENDBRANCH  23  26
ENDBRANCH   7  22
TORSDOF 5
ENDMDL
