MODEL 1
REMARK VINA RESULT:      -9.2      0.000      0.000
REMARK  11 active torsions:
REMARK  status: ('A' for Active; 'I' for Inactive)
REMARK    1  A    between atoms: C_2  and  C_3 
REMARK    2  A    between atoms: C_3  and  C_4 
REMARK    3  A    between atoms: C_4  and  O_6 
REMARK    4  A    between atoms: O_6  and  C_7 
REMARK    5  A    between atoms: C_9  and  N_10 
REMARK    6  A    between atoms: C_12  and  C_13 
REMARK    7  A    between atoms: C_23  and  C_24 
REMARK       I    between atoms: C_24  and  N_26 
REMARK    8  A    between atoms: N_26  and  CA_27 
REMARK    9  A    between atoms: CA_27  and  C_28 
REMARK   10  A    between atoms: CA_27  and  C_30 
REMARK   11  A    between atoms: C_30  and  O_31 
ROOT
ATOM      1  C   UNL d   1     -29.276  21.837  23.615  0.00  0.00     0.087 A 
ATOM      2  C   UNL d   1     -28.106  22.286  23.025  0.00  0.00     0.073 A 
ATOM      3  C   UNL d   1     -27.037  22.680  23.816  0.00  0.00     0.104 A 
ATOM      4  C   UNL d   1     -27.133  22.624  25.206  0.00  0.00     0.146 A 
ATOM      5  F   UNL d   1     -26.087  23.009  25.970  0.00  0.00    -0.204 F 
ATOM      6  C   UNL d   1     -28.290  22.177  25.802  0.00  0.00     0.064 A 
ATOM      7  C   UNL d   1     -29.377  21.785  25.012  0.00  0.00     0.068 A 
ENDROOT
BRANCH   3   8
ATOM      8  N   UNL d   1     -25.859  23.133  23.219  0.00  0.00    -0.178 N 
ATOM      9  C   UNL d   1     -25.221  22.565  22.174  0.00  0.00     0.351 A 
ATOM     10  N   UNL d   1     -24.132  23.314  21.910  0.00  0.00    -0.288 N 
ATOM     11  O   UNL d   1     -25.567  21.561  21.579  0.00  0.00    -0.244 OA
ATOM     12  C   UNL d   1     -24.094  24.354  22.808  0.00  0.00     0.134 A 
ATOM     13  C   UNL d   1     -23.153  23.062  20.849  0.00  0.00     0.162 C 
ATOM     14  N   UNL d   1     -25.116  24.261  23.596  0.00  0.00    -0.149 NA
BRANCH  12  15
ATOM     15  C   UNL d   1     -23.035  25.425  22.865  0.00  0.00     0.049 C 
ATOM     16  C   UNL d   1     -23.661  26.734  23.347  0.00  0.00     0.018 C 
ATOM     17  C   UNL d   1     -21.932  24.999  23.835  0.00  0.00     0.018 C 
ENDBRANCH  12  15
ENDBRANCH   3   8
BRANCH   1  18
ATOM     18  O   UNL d   1     -30.323  21.452  22.841  0.00  0.00    -0.345 OA
BRANCH  18  19
ATOM     19  C   UNL d   1     -31.014  22.478  22.127  0.00  0.00     0.124 C 
ATOM     20  C   UNL d   1     -30.719  22.345  20.631  0.00  0.00     0.040 C 
BRANCH  19  21
ATOM     21  C   UNL d   1     -32.519  22.339  22.364  0.00  0.00     0.032 C 
BRANCH  21  22
ATOM     22  C   UNL d   1     -33.191  21.830  21.087  0.00  0.00    -0.002 C 
ATOM     23  C   UNL d   1     -33.847  20.475  21.362  0.00  0.00     0.005 C 
ENDBRANCH  21  22
ENDBRANCH  19  21
ENDBRANCH  18  19
ENDBRANCH   1  18
BRANCH   7  24
ATOM     24  C   UNL d   1     -30.620  21.313  25.646  0.00  0.00     0.254 C 
ATOM     25  O   UNL d   1     -31.062  21.889  26.621  0.00  0.00    -0.268 OA
ATOM     26  N   UNL d   1     -31.267  20.243  25.144  0.00  0.00    -0.350 N 
ATOM     27  H   UNL d   1     -30.914  19.783  24.366  0.00  0.00     0.163 HD
BRANCH  26  28
ATOM     28  CA  UNL d   1     -32.503  19.772  25.775  0.00  0.00     0.108 C 
BRANCH  28  29
ATOM     29  C   UNL d   1     -32.388  18.276  26.071  0.00  0.00     0.023 C 
ATOM     30  C   UNL d   1     -31.015  17.981  26.681  0.00  0.00     0.007 C 
ENDBRANCH  28  29
BRANCH  28  31
ATOM     31  C   UNL d   1     -33.682  20.016  24.830  0.00  0.00     0.189 C 
BRANCH  31  32
ATOM     32  O   UNL d   1     -34.906  19.928  25.564  0.00  0.00    -0.399 OA
ATOM     33  H   UNL d   1     -35.561  20.595  25.316  0.00  0.00     0.209 HD
ENDBRANCH  31  32
ENDBRANCH  28  31
ENDBRANCH  26  28
ENDBRANCH   7  24
TORSDOF 11
ENDMDL
