MODEL 1
REMARK VINA RESULT:     -10.5      0.000      0.000
REMARK  6 active torsions:
REMARK  status: ('A' for Active; 'I' for Inactive)
REMARK    1  A    between atoms: C_2  and  O_3 
REMARK    2  A    between atoms: C_2  and  C_33 
REMARK    3  A    between atoms: O_3  and  C_4 
REMARK    4  A    between atoms: C_6  and  N_7 
REMARK    5  A    between atoms: C_21  and  C_22 
REMARK       I    between atoms: C_22  and  N_24 
REMARK    6  A    between atoms: N_24  and  C_25 
ROOT
ATOM      1  C   UNL d   1     -24.362  23.592  22.771  0.00  0.00     0.087 A 
ATOM      2  C   UNL d   1     -25.605  22.987  22.831  0.00  0.00     0.073 A 
ATOM      3  C   UNL d   1     -26.562  23.452  23.723  0.00  0.00     0.104 A 
ATOM      4  C   UNL d   1     -26.279  24.532  24.558  0.00  0.00     0.146 A 
ATOM      5  F   UNL d   1     -27.214  24.978  25.424  0.00  0.00    -0.204 F 
ATOM      6  C   UNL d   1     -25.047  25.144  24.503  0.00  0.00     0.064 A 
ATOM      7  C   UNL d   1     -24.076  24.682  23.606  0.00  0.00     0.068 A 
ENDROOT
BRANCH   3   8
ATOM      8  N   UNL d   1     -27.814  22.835  23.785  0.00  0.00    -0.178 N 
ATOM      9  C   UNL d   1     -28.291  22.091  24.808  0.00  0.00     0.351 A 
ATOM     10  N   UNL d   1     -29.522  21.692  24.471  0.00  0.00    -0.282 N 
ATOM     11  O   UNL d   1     -27.708  21.834  25.846  0.00  0.00    -0.244 OA
ATOM     12  C   UNL d   1     -29.814  22.191  23.211  0.00  0.00     0.133 A 
ATOM     13  C   UNL d   1     -30.471  20.862  25.232  0.00  0.00     0.165 C 
ATOM     14  N   UNL d   1     -28.808  22.870  22.792  0.00  0.00    -0.149 NA
ATOM     15  C   UNL d   1     -31.136  21.923  22.521  0.00  0.00     0.110 C 
ATOM     16  C   UNL d   1     -32.231  22.618  23.339  0.00  0.00     0.277 C 
ATOM     17  N   UNL d   1     -32.617  21.826  24.489  0.00  0.00     0.085 N 
ATOM     18  C   UNL d   1     -31.675  21.743  25.586  0.00  0.00     0.289 C 
ATOM     19  H   UNL d   1     -32.927  20.908  24.209  0.00  0.00     0.315 HD
ENDBRANCH   3   8
BRANCH   1  20
ATOM     20  O   UNL d   1     -23.424  23.135  21.903  0.00  0.00    -0.336 OA
BRANCH  20  21
ATOM     21  C   UNL d   1     -23.659  23.368  20.513  0.00  0.00     0.232 C 
ATOM     22  C   UNL d   1     -22.338  23.721  19.825  0.00  0.00     0.049 C 
BRANCH  21  23
ATOM     23  C   UNL d   1     -24.243  22.107  19.876  0.00  0.00     0.413 C 
ATOM     24  F   UNL d   1     -23.557  21.821  18.691  0.00  0.00    -0.168 F 
ATOM     25  F   UNL d   1     -24.112  21.033  20.762  0.00  0.00    -0.168 F 
ATOM     26  F   UNL d   1     -25.598  22.313  19.591  0.00  0.00    -0.168 F 
ENDBRANCH  21  23
ENDBRANCH  20  21
ENDBRANCH   1  20
BRANCH   7  27
ATOM     27  C   UNL d   1     -22.758  25.335  23.544  0.00  0.00     0.259 C 
ATOM     28  O   UNL d   1     -22.660  26.467  23.107  0.00  0.00    -0.267 OA
ATOM     29  N   UNL d   1     -21.659  24.681  23.969  0.00  0.00    -0.318 N 
ATOM     30  H   UNL d   1     -21.724  23.751  24.239  0.00  0.00     0.169 HD
BRANCH  29  31
ATOM     31  C   UNL d   1     -20.426  25.342  24.024  0.00  0.00     0.113 A 
ATOM     32  C   UNL d   1     -20.078  26.079  25.149  0.00  0.00     0.146 A 
ATOM     33  C   UNL d   1     -18.860  26.731  25.199  0.00  0.00     0.045 A 
ATOM     34  F   UNL d   1     -20.931  26.158  26.195  0.00  0.00    -0.204 F 
ATOM     35  C   UNL d   1     -17.987  26.651  24.129  0.00  0.00     0.006 A 
ATOM     36  C   UNL d   1     -18.328  25.919  23.008  0.00  0.00     0.045 A 
ATOM     37  C   UNL d   1     -19.544  25.259  22.953  0.00  0.00     0.146 A 
ATOM     38  F   UNL d   1     -19.874  24.540  21.857  0.00  0.00    -0.204 F 
ENDBRANCH  29  31
ENDBRANCH   7  27
TORSDOF 6
ENDMDL
