MODEL 1
REMARK VINA RESULT:      -9.4      0.000      0.000
REMARK  6 active torsions:
REMARK  status: ('A' for Active; 'I' for Inactive)
REMARK    1  A    between atoms: C_7  and  N_8 
REMARK       I    between atoms: N_8  and  C_9 
REMARK    2  A    between atoms: C_9  and  C_11 
REMARK    3  A    between atoms: C_15  and  N_16 
REMARK    4  A    between atoms: C_27  and  O_28 
REMARK    5  A    between atoms: O_28  and  C_29 
REMARK    6  A    between atoms: C_29  and  C_31 
ROOT
ATOM      1  C   UNL d   1     -19.766  24.864  22.593  0.00  0.00     0.068 A 
ATOM      2  C   UNL d   1     -20.379  24.556  21.373  0.00  0.00     0.064 A 
ATOM      3  C   UNL d   1     -21.670  24.077  21.354  0.00  0.00     0.146 A 
ATOM      4  F   UNL d   1     -22.263  23.785  20.176  0.00  0.00    -0.204 F 
ATOM      5  C   UNL d   1     -22.366  23.891  22.549  0.00  0.00     0.104 A 
ATOM      6  C   UNL d   1     -21.764  24.189  23.763  0.00  0.00     0.073 A 
ATOM      7  C   UNL d   1     -20.467  24.672  23.793  0.00  0.00     0.087 A 
ENDROOT
BRANCH   1   8
ATOM      8  C   UNL d   1     -18.388  25.383  22.617  0.00  0.00     0.260 C 
ATOM      9  N   UNL d   1     -18.129  26.580  23.179  0.00  0.00    -0.305 N 
ATOM     10  H   UNL d   1     -18.850  27.100  23.567  0.00  0.00     0.170 HD
ATOM     11  O   UNL d   1     -17.484  24.732  22.131  0.00  0.00    -0.267 OA
BRANCH   9  12
ATOM     12  C   UNL d   1     -16.818  27.074  23.203  0.00  0.00     0.158 A 
ATOM     13  C   UNL d   1     -15.820  26.720  24.126  0.00  0.00     0.003 A 
ATOM     14  C   UNL d   1     -15.969  25.745  25.264  0.00  0.00     0.054 C 
ATOM     15  C   UNL d   1     -14.700  27.410  23.809  0.00  0.00     0.122 A 
ATOM     16  N   UNL d   1     -14.977  28.178  22.734  0.00  0.00    -0.283 N 
ATOM     17  C   UNL d   1     -14.044  29.089  22.064  0.00  0.00     0.179 C 
ATOM     18  N   UNL d   1     -16.310  27.952  22.370  0.00  0.00    -0.154 NA
ENDBRANCH   9  12
ENDBRANCH   1   8
BRANCH   7  19
ATOM     19  O   UNL d   1     -19.876  24.964  24.980  0.00  0.00    -0.345 OA
BRANCH  19  20
ATOM     20  C   UNL d   1     -20.025  26.299  25.466  0.00  0.00     0.129 C 
ATOM     21  C   UNL d   1     -21.509  26.595  25.696  0.00  0.00     0.040 C 
BRANCH  20  22
ATOM     22  C   UNL d   1     -19.266  26.448  26.787  0.00  0.00     0.015 C 
ATOM     23  C   UNL d   1     -20.243  26.300  27.955  0.00  0.00     0.007 C 
ATOM     24  C   UNL d   1     -19.484  26.448  29.276  0.00  0.00     0.000 C 
ATOM     25  C   UNL d   1     -18.825  27.828  29.332  0.00  0.00     0.000 C 
ATOM     26  C   UNL d   1     -17.848  27.975  28.164  0.00  0.00     0.000 C 
ATOM     27  C   UNL d   1     -18.607  27.826  26.844  0.00  0.00     0.007 C 
ENDBRANCH  20  22
ENDBRANCH  19  20
ENDBRANCH   7  19
BRANCH   5  28
ATOM     28  N   UNL d   1     -23.674  23.404  22.522  0.00  0.00    -0.178 N 
ATOM     29  C   UNL d   1     -24.721  23.881  23.230  0.00  0.00     0.351 A 
ATOM     30  N   UNL d   1     -25.798  23.151  22.895  0.00  0.00    -0.284 N 
ATOM     31  O   UNL d   1     -24.694  24.804  24.023  0.00  0.00    -0.244 OA
ATOM     32  C   UNL d   1     -25.403  22.183  21.995  0.00  0.00     0.131 A 
ATOM     33  C   UNL d   1     -27.178  23.331  23.359  0.00  0.00     0.135 C 
ATOM     34  N   UNL d   1     -24.145  22.330  21.751  0.00  0.00    -0.149 NA
ATOM     35  C   UNL d   1     -26.334  21.135  21.428  0.00  0.00     0.081 C 
ATOM     36  C   UNL d   1     -27.776  21.617  21.638  0.00  0.00     0.009 C 
ATOM     37  C   UNL d   1     -27.955  22.035  23.101  0.00  0.00     0.021 C 
ENDBRANCH   5  28
TORSDOF 6
ENDMDL
