MODEL 1
REMARK VINA RESULT:      -8.3      0.000      0.000
REMARK  6 active torsions:
REMARK  status: ('A' for Active; 'I' for Inactive)
REMARK    1  A    between atoms: C_2  and  O_5 
REMARK    2  A    between atoms: O_5  and  C_6 
REMARK    3  A    between atoms: C_9  and  N_10 
REMARK    4  A    between atoms: N_10  and  C_11 
REMARK    5  A    between atoms: C_11  and  C_13 
REMARK    6  A    between atoms: C_17  and  C_18 
ROOT
ATOM      1  N   UNL d   1     -24.123  23.459  23.430  0.00  0.00    -0.346 N 
ATOM      2  H   UNL d   1     -23.535  22.921  23.982  0.00  0.00     0.167 HD
ENDROOT
BRANCH   1   3
ATOM      3  C   UNL d   1     -25.432  23.033  23.178  0.00  0.00     0.033 A 
ATOM      4  C   UNL d   1     -26.475  23.482  23.976  0.00  0.00     0.032 A 
ATOM      5  C   UNL d   1     -27.768  23.065  23.723  0.00  0.00     0.039 A 
ATOM      6  C   UNL d   1     -28.022  22.193  22.675  0.00  0.00     0.078 A 
ATOM      7  C   UNL d   1     -26.980  21.739  21.880  0.00  0.00     0.039 A 
ATOM      8  C   UNL d   1     -25.687  22.155  22.131  0.00  0.00     0.032 A 
BRANCH   6   9
ATOM      9  O   UNL d   1     -29.294  21.782  22.427  0.00  0.00    -0.255 OA
BRANCH   9  10
ATOM     10  C   UNL d   1     -29.925  22.295  21.251  0.00  0.00     0.530 C 
ATOM     11  F   UNL d   1     -29.406  23.560  20.959  0.00  0.00    -0.144 F 
ATOM     12  F   UNL d   1     -29.683  21.431  20.178  0.00  0.00    -0.144 F 
ATOM     13  F   UNL d   1     -31.303  22.395  21.467  0.00  0.00    -0.144 F 
ENDBRANCH   9  10
ENDBRANCH   6   9
ENDBRANCH   1   3
BRANCH   1  14
ATOM     14  C   UNL d   1     -23.678  24.618  22.904  0.00  0.00     0.115 C 
ATOM     15  S   UNL d   1     -24.098  26.107  23.637  0.00  0.00    -0.059 SA
BRANCH  14  16
ATOM     16  C   UNL d   1     -22.832  24.604  21.700  0.00  0.00     0.054 A 
ATOM     17  C   UNL d   1     -21.520  24.988  21.570  0.00  0.00     0.098 A 
ATOM     18  O   UNL d   1     -21.195  24.789  20.290  0.00  0.00    -0.217 OA
ATOM     19  N   UNL d   1     -22.106  24.352  19.631  0.00  0.00    -0.140 NA
ATOM     20  C   UNL d   1     -23.185  24.179  20.336  0.00  0.00     0.163 A 
BRANCH  17  21
ATOM     21  C   UNL d   1     -20.624  25.525  22.656  0.00  0.00     0.046 A 
ATOM     22  C   UNL d   1     -20.107  24.534  23.701  0.00  0.00     0.012 A 
ATOM     23  C   UNL d   1     -19.156  25.094  22.640  0.00  0.00     0.012 A 
ENDBRANCH  17  21
ENDBRANCH  14  16
ENDBRANCH   1  14
TORSDOF 6
ENDMDL
