MODEL 1
REMARK VINA RESULT:      -9.4      0.000      0.000
REMARK  3 active torsions:
REMARK  status: ('A' for Active; 'I' for Inactive)
REMARK    1  A    between atoms: C_5  and  C_6 
REMARK       I    between atoms: C_6  and  N_8 
REMARK    2  A    between atoms: N_8  and  C_9 
REMARK    3  A    between atoms: N_17  and  C_18 
ROOT
ATOM      1  C   UNL d   1     -26.607  23.846  24.116  0.00  0.00     0.121 C 
ATOM      2  C   UNL d   1     -26.472  25.360  24.330  0.00  0.00     0.030 C 
ATOM      3  C   UNL d   1     -25.054  25.684  24.807  0.00  0.00     0.008 C 
ATOM      4  C   UNL d   1     -24.063  25.465  23.658  0.00  0.00     0.060 C 
ATOM      5  C   UNL d   1     -24.316  24.101  23.065  0.00  0.00     0.046 A 
ATOM      6  C   UNL d   1     -25.448  23.380  23.270  0.00  0.00     0.008 A 
ATOM      7  C   UNL d   1     -25.326  22.180  22.574  0.00  0.00     0.150 A 
ATOM      8  N   UNL d   1     -24.163  22.176  21.968  0.00  0.00    -0.179 NA
ATOM      9  N   UNL d   1     -23.509  23.382  22.264  0.00  0.00    -0.235 N 
ENDROOT
BRANCH   1  10
ATOM     10  N   UNL d   1     -27.867  23.556  23.430  0.00  0.00    -0.347 N 
ATOM     11  C   UNL d   1     -28.726  22.656  23.949  0.00  0.00     0.272 C 
ATOM     12  O   UNL d   1     -28.454  22.087  24.988  0.00  0.00    -0.266 OA
ATOM     13  H   UNL d   1     -28.085  24.010  22.600  0.00  0.00     0.163 HD
BRANCH  11  14
ATOM     14  C   UNL d   1     -30.001  22.361  23.256  0.00  0.00     0.141 A 
ATOM     15  N   UNL d   1     -31.068  21.983  23.956  0.00  0.00    -0.252 NA
ATOM     16  C   UNL d   1     -32.200  21.717  23.336  0.00  0.00     0.144 A 
ATOM     17  C   UNL d   1     -32.282  21.834  21.956  0.00  0.00     0.048 A 
ATOM     18  C   UNL d   1     -33.579  21.528  21.251  0.00  0.00     0.072 C 
ATOM     19  N   UNL d   1     -31.227  22.215  21.257  0.00  0.00    -0.262 NA
ATOM     20  C   UNL d   1     -30.089  22.485  21.871  0.00  0.00     0.154 A 
ENDBRANCH  11  14
ENDBRANCH   1  10
BRANCH   9  21
ATOM     21  C   UNL d   1     -22.241  23.769  21.806  0.00  0.00     0.097 A 
ATOM     22  C   UNL d   1     -22.111  24.427  20.588  0.00  0.00     0.145 A 
ATOM     23  C   UNL d   1     -20.859  24.811  20.142  0.00  0.00     0.045 A 
ATOM     24  F   UNL d   1     -23.206  24.694  19.843  0.00  0.00    -0.204 F 
ATOM     25  C   UNL d   1     -19.738  24.533  20.903  0.00  0.00     0.003 A 
ATOM     26  C   UNL d   1     -19.865  23.874  22.111  0.00  0.00     0.002 A 
ATOM     27  C   UNL d   1     -21.112  23.492  22.564  0.00  0.00     0.035 A 
ENDBRANCH   9  21
TORSDOF 3
ENDMDL
