MODEL 1
REMARK VINA RESULT:     -10.8      0.000      0.000
REMARK  6 active torsions:
REMARK  status: ('A' for Active; 'I' for Inactive)
REMARK    1  A    between atoms: C_4  and  N_5 
REMARK    2  A    between atoms: N_5  and  C_6 
REMARK    3  A    between atoms: C_9  and  C_10 
REMARK    4  A    between atoms: C_14  and  C_15 
REMARK    5  A    between atoms: C_15  and  O_17 
REMARK    6  A    between atoms: C_20  and  C_21 
ROOT
ATOM      1  N   UNL d   1     -23.461  22.605  21.644  0.00  0.00    -0.354 N 
ATOM      2  H   UNL d   1     -23.176  22.062  20.893  0.00  0.00     0.166 HD
ENDROOT
BRANCH   1   3
ATOM      3  C   UNL d   1     -24.767  22.499  22.127  0.00  0.00     0.050 A 
ATOM      4  C   UNL d   1     -25.185  23.274  23.207  0.00  0.00     0.040 A 
ATOM      5  C   UNL d   1     -26.488  23.137  23.651  0.00  0.00    -0.030 A 
ATOM      6  C   UNL d   1     -26.986  23.953  24.816  0.00  0.00     0.050 C 
ATOM      7  C   UNL d   1     -27.334  22.235  23.009  0.00  0.00     0.072 A 
ATOM      8  N   UNL d   1     -26.900  21.513  21.982  0.00  0.00    -0.258 NA
ATOM      9  C   UNL d   1     -25.668  21.623  21.531  0.00  0.00     0.146 A 
BRANCH   7  10
ATOM     10  C   UNL d   1     -28.732  22.079  23.476  0.00  0.00    -0.007 A 
ATOM     11  C   UNL d   1     -29.788  22.520  22.681  0.00  0.00     0.014 A 
ATOM     12  C   UNL d   1     -31.088  22.372  23.120  0.00  0.00     0.001 A 
ATOM     13  C   UNL d   1     -31.344  21.789  24.349  0.00  0.00     0.000 A 
ATOM     14  C   UNL d   1     -30.299  21.350  25.143  0.00  0.00     0.001 A 
ATOM     15  C   UNL d   1     -28.995  21.487  24.710  0.00  0.00     0.014 A 
ENDBRANCH   7  10
ENDBRANCH   1   3
BRANCH   1  16
ATOM     16  C   UNL d   1     -22.571  23.489  22.239  0.00  0.00     0.049 A 
ATOM     17  C   UNL d   1     -22.062  24.576  21.510  0.00  0.00     0.064 A 
ATOM     18  C   UNL d   1     -21.167  25.459  22.121  0.00  0.00     0.028 A 
ATOM     19  C   UNL d   1     -20.791  25.258  23.430  0.00  0.00    -0.053 A 
ATOM     20  C   UNL d   1     -21.291  24.181  24.146  0.00  0.00     0.010 A 
ATOM     21  C   UNL d   1     -22.179  23.304  23.560  0.00  0.00     0.031 A 
BRANCH  17  22
ATOM     22  C   UNL d   1     -22.469  24.785  20.110  0.00  0.00     0.178 C 
ATOM     23  O   UNL d   1     -21.735  25.381  19.346  0.00  0.00    -0.646 OA
BRANCH  22  24
ATOM     24  O   UNL d   1     -23.654  24.314  19.675  0.00  0.00    -0.773 OA
ATOM     25  H   UNL d   1     -23.934  24.580  18.789  0.00  0.00     0.167 HD
ENDBRANCH  22  24
ENDBRANCH  17  22
BRANCH  19  26
ATOM     26  C   UNL d   1     -19.825  26.211  24.088  0.00  0.00     0.018 A 
ATOM     27  C   UNL d   1     -19.410  25.914  25.529  0.00  0.00     0.010 A 
ATOM     28  C   UNL d   1     -20.357  27.078  25.231  0.00  0.00     0.010 A 
ENDBRANCH  19  26
ENDBRANCH   1  16
TORSDOF 6
ENDMDL
