MODEL 1
REMARK VINA RESULT:      -9.9      0.000      0.000
REMARK  9 active torsions:
REMARK  status: ('A' for Active; 'I' for Inactive)
REMARK    1  A    between atoms: C_2  and  C_3 
REMARK    2  A    between atoms: C_3  and  C_4 
REMARK    3  A    between atoms: C_4  and  O_6 
REMARK    4  A    between atoms: O_6  and  C_7 
REMARK    5  A    between atoms: C_9  and  N_10 
REMARK    6  A    between atoms: C_12  and  C_13 
REMARK    7  A    between atoms: C_22  and  C_23 
REMARK       I    between atoms: C_23  and  N_25 
REMARK    8  A    between atoms: N_25  and  C_26 
REMARK    9  A    between atoms: C_29  and  C_30 
ROOT
ATOM      1  C   UNL d   1     -27.541  22.697  22.981  0.00  0.00     0.087 A 
ATOM      2  C   UNL d   1     -28.739  22.036  23.189  0.00  0.00     0.073 A 
ATOM      3  C   UNL d   1     -29.239  21.889  24.475  0.00  0.00     0.104 A 
ATOM      4  C   UNL d   1     -28.538  22.406  25.565  0.00  0.00     0.146 A 
ATOM      5  F   UNL d   1     -29.029  22.258  26.814  0.00  0.00    -0.204 F 
ATOM      6  C   UNL d   1     -27.341  23.060  25.370  0.00  0.00     0.064 A 
ATOM      7  C   UNL d   1     -26.834  23.218  24.075  0.00  0.00     0.068 A 
ENDROOT
BRANCH   7   8
ATOM      8  C   UNL d   1     -25.559  23.923  23.863  0.00  0.00     0.259 C 
ATOM      9  O   UNL d   1     -25.492  25.126  24.035  0.00  0.00    -0.267 OA
ATOM     10  N   UNL d   1     -24.465  23.237  23.476  0.00  0.00    -0.323 N 
ATOM     11  H   UNL d   1     -24.535  22.292  23.266  0.00  0.00     0.169 HD
BRANCH  10  12
ATOM     12  C   UNL d   1     -23.230  23.885  23.380  0.00  0.00     0.035 A 
ATOM     13  C   UNL d   1     -22.086  23.280  23.882  0.00  0.00     0.030 A 
ATOM     14  C   UNL d   1     -20.866  23.921  23.780  0.00  0.00     0.010 A 
ATOM     15  C   UNL d   1     -20.786  25.168  23.189  0.00  0.00    -0.055 A 
ATOM     16  C   UNL d   1     -21.924  25.774  22.689  0.00  0.00     0.010 A 
ATOM     17  C   UNL d   1     -23.146  25.136  22.782  0.00  0.00     0.030 A 
BRANCH  15  18
ATOM     18  C   UNL d   1     -19.455  25.866  23.084  0.00  0.00     0.010 C 
ATOM     19  C   UNL d   1     -18.471  24.976  22.322  0.00  0.00     0.015 C 
ATOM     20  C   UNL d   1     -18.912  26.142  24.487  0.00  0.00     0.015 C 
ENDBRANCH  15  18
ENDBRANCH  10  12
ENDBRANCH   7   8
BRANCH   1  21
ATOM     21  O   UNL d   1     -27.053  22.843  21.724  0.00  0.00    -0.345 OA
BRANCH  21  22
ATOM     22  C   UNL d   1     -26.655  21.653  21.041  0.00  0.00     0.124 C 
ATOM     23  C   UNL d   1     -27.891  20.951  20.475  0.00  0.00     0.040 C 
BRANCH  22  24
ATOM     24  C   UNL d   1     -25.706  22.014  19.897  0.00  0.00     0.032 C 
BRANCH  24  25
ATOM     25  C   UNL d   1     -24.261  21.965  20.398  0.00  0.00    -0.002 C 
ATOM     26  C   UNL d   1     -23.467  23.117  19.780  0.00  0.00     0.005 C 
ENDBRANCH  24  25
ENDBRANCH  22  24
ENDBRANCH  21  22
ENDBRANCH   1  21
BRANCH   3  27
ATOM     27  N   UNL d   1     -30.448  21.221  24.681  0.00  0.00    -0.178 N 
ATOM     28  C   UNL d   1     -31.623  21.491  24.075  0.00  0.00     0.351 A 
ATOM     29  N   UNL d   1     -32.533  20.616  24.551  0.00  0.00    -0.289 N 
ATOM     30  O   UNL d   1     -31.827  22.362  23.248  0.00  0.00    -0.244 OA
ATOM     31  C   UNL d   1     -31.912  19.804  25.468  0.00  0.00     0.130 A 
ATOM     32  C   UNL d   1     -33.943  20.548  24.161  0.00  0.00     0.162 C 
ATOM     33  N   UNL d   1     -30.667  20.150  25.558  0.00  0.00    -0.149 NA
BRANCH  31  34
ATOM     34  C   UNL d   1     -32.570  18.691  26.242  0.00  0.00     0.076 C 
ATOM     35  C   UNL d   1     -31.503  17.891  26.993  0.00  0.00     0.013 C 
ENDBRANCH  31  34
ENDBRANCH   3  27
TORSDOF 9
ENDMDL
