MODEL 1
REMARK VINA RESULT:     -11.2      0.000      0.000
REMARK  7 active torsions:
REMARK  status: ('A' for Active; 'I' for Inactive)
REMARK    1  A    between atoms: C_2  and  N_3 
REMARK    2  A    between atoms: C_4  and  C_5 
REMARK    3  A    between atoms: N_14  and  C_15 
REMARK    4  A    between atoms: C_18  and  C_19 
REMARK       I    between atoms: C_19  and  N_21 
REMARK    5  A    between atoms: N_21  and  C_22 
REMARK    6  A    between atoms: C_26  and  C_27 
REMARK    7  A    between atoms: C_32  and  O_33 
ROOT
ATOM      1  C   UNL d   1     -24.914  23.855  23.201  0.00  0.00     0.066 A 
ATOM      2  C   UNL d   1     -25.725  24.412  24.188  0.00  0.00     0.033 A 
ATOM      3  C   UNL d   1     -26.947  23.870  24.465  0.00  0.00     0.022 A 
ATOM      4  C   UNL d   1     -27.396  22.753  23.753  0.00  0.00     0.065 A 
ATOM      5  C   UNL d   1     -26.580  22.185  22.760  0.00  0.00     0.086 A 
ATOM      6  C   UNL d   1     -25.344  22.743  22.488  0.00  0.00     0.069 A 
ENDROOT
BRANCH   1   7
ATOM      7  N   UNL d   1     -23.666  24.417  22.928  0.00  0.00    -0.180 N 
ATOM      8  N   UNL d   1     -22.696  24.777  23.872  0.00  0.00    -0.144 NA
ATOM      9  C   UNL d   1     -21.670  25.265  23.231  0.00  0.00     0.168 A 
ATOM     10  N   UNL d   1     -21.944  25.236  21.878  0.00  0.00    -0.280 N 
ATOM     11  C   UNL d   1     -23.172  24.707  21.707  0.00  0.00     0.351 A 
ATOM     12  O   UNL d   1     -23.734  24.526  20.642  0.00  0.00    -0.244 OA
BRANCH   9  13
ATOM     13  C   UNL d   1     -20.424  25.768  23.849  0.00  0.00     0.055 A 
ATOM     14  C   UNL d   1     -19.192  25.214  23.494  0.00  0.00     0.049 A 
ATOM     15  C   UNL d   1     -18.032  25.687  24.076  0.00  0.00     0.025 A 
ATOM     16 CL   UNL d   1     -19.119  23.933  22.324  0.00  0.00    -0.083 Cl
ATOM     17  C   UNL d   1     -18.088  26.708  25.007  0.00  0.00     0.003 A 
ATOM     18  C   UNL d   1     -19.305  27.262  25.364  0.00  0.00     0.025 A 
ATOM     19  C   UNL d   1     -20.473  26.801  24.786  0.00  0.00     0.049 A 
ATOM     20 CL   UNL d   1     -21.998  27.503  25.230  0.00  0.00    -0.083 Cl
ENDBRANCH   9  13
BRANCH  10  21
ATOM     21  C   UNL d   1     -21.051  25.694  20.811  0.00  0.00     0.131 C 
ATOM     22  C   UNL d   1     -21.094  24.701  19.647  0.00  0.00     0.027 C 
ENDBRANCH  10  21
ENDBRANCH   1   7
BRANCH   5  23
ATOM     23  O   UNL d   1     -27.006  21.099  22.068  0.00  0.00    -0.355 OA
ATOM     24  C   UNL d   1     -27.511  21.327  20.750  0.00  0.00     0.210 C 
ENDBRANCH   5  23
BRANCH   4  25
ATOM     25  C   UNL d   1     -28.717  22.171  24.046  0.00  0.00     0.259 C 
ATOM     26  O   UNL d   1     -28.819  21.272  24.858  0.00  0.00    -0.267 OA
ATOM     27  N   UNL d   1     -29.812  22.636  23.413  0.00  0.00    -0.323 N 
ATOM     28  H   UNL d   1     -29.743  23.403  22.823  0.00  0.00     0.169 HD
BRANCH  27  29
ATOM     29  C   UNL d   1     -31.049  22.012  23.607  0.00  0.00     0.035 A 
ATOM     30  C   UNL d   1     -31.920  21.846  22.538  0.00  0.00     0.045 A 
ATOM     31  C   UNL d   1     -33.140  21.229  22.733  0.00  0.00     0.050 A 
ATOM     32  C   UNL d   1     -33.494  20.776  23.990  0.00  0.00     0.016 A 
ATOM     33  C   UNL d   1     -32.629  20.939  25.056  0.00  0.00     0.003 A 
ATOM     34  C   UNL d   1     -31.405  21.550  24.868  0.00  0.00     0.029 A 
BRANCH  31  35
ATOM     35  C   UNL d   1     -34.086  21.050  21.574  0.00  0.00     0.417 C 
ATOM     36  F   UNL d   1     -35.354  20.707  22.056  0.00  0.00    -0.166 F 
ATOM     37  F   UNL d   1     -34.171  22.246  20.852  0.00  0.00    -0.166 F 
ATOM     38  F   UNL d   1     -33.613  20.034  20.739  0.00  0.00    -0.166 F 
ENDBRANCH  31  35
ENDBRANCH  27  29
ENDBRANCH   4  25
TORSDOF 7
ENDMDL
