MODEL 1
REMARK VINA RESULT:      -9.3      0.000      0.000
REMARK  10 active torsions:
REMARK  status: ('A' for Active; 'I' for Inactive)
REMARK    1  A    between atoms: C_2  and  C_4 
REMARK    2  A    between atoms: N_6  and  C_7 
REMARK    3  A    between atoms: C_11  and  O_12 
REMARK    4  A    between atoms: O_12  and  C_13 
REMARK    5  A    between atoms: C_13  and  C_14 
REMARK    6  A    between atoms: C_14  and  O_15 
REMARK    7  A    between atoms: C_24  and  N_25 
REMARK    8  A    between atoms: C_27  and  C_28 
REMARK    9  A    between atoms: C_28  and  O_29 
REMARK   10  A    between atoms: N_30  and  C_31 
ROOT
ATOM      1  C   UNL d   1     -25.705  24.117  23.599  0.00  0.00    -0.004 A 
ATOM      2  C   UNL d   1     -24.429  24.319  23.182  0.00  0.00     0.113 A 
ATOM      3  N   UNL d   1     -23.922  23.704  22.074  0.00  0.00    -0.286 N 
ATOM      4  C   UNL d   1     -24.651  22.859  21.321  0.00  0.00     0.263 A 
ATOM      5  O   UNL d   1     -24.157  22.332  20.339  0.00  0.00    -0.267 OA
ATOM      6  C   UNL d   1     -26.041  22.577  21.688  0.00  0.00     0.047 A 
ATOM      7  C   UNL d   1     -26.838  21.707  20.940  0.00  0.00     0.062 A 
ATOM      8  C   UNL d   1     -28.129  21.473  21.322  0.00  0.00     0.146 A 
ATOM      9  F   UNL d   1     -28.898  20.632  20.596  0.00  0.00    -0.204 F 
ATOM     10  C   UNL d   1     -28.662  22.094  22.454  0.00  0.00     0.103 A 
ATOM     11  C   UNL d   1     -27.892  22.964  23.208  0.00  0.00     0.048 A 
ATOM     12  C   UNL d   1     -26.575  23.208  22.834  0.00  0.00    -0.006 A 
ENDROOT
BRANCH   3  13
ATOM     13  C   UNL d   1     -22.595  23.963  21.707  0.00  0.00     0.066 A 
ATOM     14  C   UNL d   1     -21.586  23.906  22.658  0.00  0.00     0.094 A 
ATOM     15  C   UNL d   1     -20.273  24.158  22.289  0.00  0.00     0.092 A 
ATOM     16 CL   UNL d   1     -21.965  23.514  24.306  0.00  0.00    -0.079 Cl
ATOM     17  C   UNL d   1     -19.974  24.478  20.972  0.00  0.00     0.039 A 
ATOM     18  C   UNL d   1     -20.981  24.538  20.027  0.00  0.00     0.005 A 
ATOM     19  C   UNL d   1     -22.289  24.283  20.390  0.00  0.00     0.032 A 
BRANCH  15  20
ATOM     20  O   UNL d   1     -19.283  24.099  23.216  0.00  0.00    -0.347 OA
BRANCH  20  21
ATOM     21  C   UNL d   1     -18.989  25.303  23.929  0.00  0.00     0.201 C 
BRANCH  21  22
ATOM     22  C   UNL d   1     -17.767  25.980  23.305  0.00  0.00     0.190 C 
BRANCH  22  23
ATOM     23  O   UNL d   1     -16.974  25.002  22.630  0.00  0.00    -0.399 OA
ATOM     24  H   UNL d   1     -16.118  25.332  22.324  0.00  0.00     0.209 HD
ENDBRANCH  22  23
ENDBRANCH  21  22
ENDBRANCH  20  21
ENDBRANCH  15  20
ENDBRANCH   3  13
BRANCH   1  25
ATOM     25  C   UNL d   1     -26.214  24.802  24.803  0.00  0.00    -0.059 C 
ATOM     26  C   UNL d   1     -26.054  26.113  24.940  0.00  0.00     0.019 C 
ATOM     27  C   UNL d   1     -26.916  24.013  25.877  0.00  0.00     0.048 C 
ENDBRANCH   1  25
BRANCH  10  28
ATOM     28  N   UNL d   1     -29.986  21.839  22.825  0.00  0.00    -0.178 N 
ATOM     29  C   UNL d   1     -31.083  22.046  22.066  0.00  0.00     0.351 A 
ATOM     30  N   UNL d   1     -32.154  21.673  22.796  0.00  0.00    -0.283 N 
ATOM     31  O   UNL d   1     -31.102  22.489  20.932  0.00  0.00    -0.244 OA
ATOM     32  C   UNL d   1     -31.710  21.224  24.016  0.00  0.00     0.154 A 
ATOM     33  N   UNL d   1     -30.419  21.317  24.052  0.00  0.00    -0.147 NA
BRANCH  30  34
ATOM     34  C   UNL d   1     -33.551  21.732  22.360  0.00  0.00     0.131 C 
ATOM     35  C   UNL d   1     -33.936  20.405  21.702  0.00  0.00     0.027 C 
ENDBRANCH  30  34
BRANCH  32  36
ATOM     36  C   UNL d   1     -32.584  20.710  25.131  0.00  0.00     0.244 C 
BRANCH  36  37
ATOM     37  O   UNL d   1     -32.083  21.183  26.384  0.00  0.00    -0.393 OA
ATOM     38  H   UNL d   1     -32.056  22.147  26.459  0.00  0.00     0.209 HD
ENDBRANCH  36  37
ENDBRANCH  32  36
ENDBRANCH  10  28
TORSDOF 10
ENDMDL
