MODEL 1
REMARK VINA RESULT:     -11.0      0.000      0.000
REMARK  6 active torsions:
REMARK  status: ('A' for Active; 'I' for Inactive)
REMARK    1  A    between atoms: C_2  and  O_3 
REMARK    2  A    between atoms: C_2  and  C_33 
REMARK    3  A    between atoms: O_3  and  C_4 
REMARK    4  A    between atoms: C_6  and  N_7 
REMARK    5  A    between atoms: C_20  and  C_21 
REMARK       I    between atoms: C_21  and  N_23 
REMARK    6  A    between atoms: N_23  and  C_24 
ROOT
ATOM      1  C   UNL d   1     -24.707  23.413  22.716  0.00  0.00     0.087 A 
ATOM      2  C   UNL d   1     -25.963  22.852  22.872  0.00  0.00     0.073 A 
ATOM      3  C   UNL d   1     -26.839  23.360  23.821  0.00  0.00     0.104 A 
ATOM      4  C   UNL d   1     -26.454  24.429  24.630  0.00  0.00     0.146 A 
ATOM      5  F   UNL d   1     -27.309  24.916  25.556  0.00  0.00    -0.204 F 
ATOM      6  C   UNL d   1     -25.205  24.991  24.489  0.00  0.00     0.064 A 
ATOM      7  C   UNL d   1     -24.319  24.488  23.529  0.00  0.00     0.068 A 
ENDROOT
BRANCH   7   8
ATOM      8  C   UNL d   1     -22.981  25.085  23.374  0.00  0.00     0.259 C 
ATOM      9  O   UNL d   1     -22.823  26.036  22.631  0.00  0.00    -0.267 OA
ATOM     10  N   UNL d   1     -21.934  24.580  24.055  0.00  0.00    -0.319 N 
ATOM     11  H   UNL d   1     -22.069  23.853  24.684  0.00  0.00     0.169 HD
BRANCH  10  12
ATOM     12  C   UNL d   1     -20.650  25.103  23.855  0.00  0.00     0.099 A 
ATOM     13  C   UNL d   1     -19.839  24.591  22.850  0.00  0.00     0.183 A 
ATOM     14  C   UNL d   1     -18.572  25.114  22.652  0.00  0.00     0.157 A 
ATOM     15  F   UNL d   1     -20.287  23.587  22.064  0.00  0.00    -0.200 F 
ATOM     16  C   UNL d   1     -18.112  26.138  23.461  0.00  0.00     0.047 A 
ATOM     17  F   UNL d   1     -17.783  24.621  21.673  0.00  0.00    -0.203 F 
ATOM     18  C   UNL d   1     -18.916  26.646  24.466  0.00  0.00     0.029 A 
ATOM     19  C   UNL d   1     -20.183  26.131  24.665  0.00  0.00     0.064 A 
ATOM     20 CL   UNL d   1     -21.191  26.768  25.926  0.00  0.00    -0.082 Cl
ENDBRANCH  10  12
ENDBRANCH   7   8
BRANCH   1  21
ATOM     21  O   UNL d   1     -23.853  22.920  21.784  0.00  0.00    -0.336 OA
BRANCH  21  22
ATOM     22  C   UNL d   1     -24.000  23.407  20.448  0.00  0.00     0.232 C 
ATOM     23  C   UNL d   1     -22.637  23.858  19.918  0.00  0.00     0.049 C 
BRANCH  22  24
ATOM     24  C   UNL d   1     -24.551  22.293  19.557  0.00  0.00     0.413 C 
ATOM     25  F   UNL d   1     -23.777  21.139  19.722  0.00  0.00    -0.168 F 
ATOM     26  F   UNL d   1     -25.876  22.021  19.914  0.00  0.00    -0.168 F 
ATOM     27  F   UNL d   1     -24.502  22.699  18.218  0.00  0.00    -0.168 F 
ENDBRANCH  22  24
ENDBRANCH  21  22
ENDBRANCH   1  21
BRANCH   3  28
ATOM     28  N   UNL d   1     -28.108  22.796  23.973  0.00  0.00    -0.178 N 
ATOM     29  C   UNL d   1     -28.517  22.008  24.991  0.00  0.00     0.351 A 
ATOM     30  N   UNL d   1     -29.807  21.705  24.770  0.00  0.00    -0.284 N 
ATOM     31  O   UNL d   1     -27.842  21.641  25.935  0.00  0.00    -0.244 OA
ATOM     32  C   UNL d   1     -30.189  22.280  23.575  0.00  0.00     0.131 A 
ATOM     33  C   UNL d   1     -30.700  20.921  25.630  0.00  0.00     0.135 C 
ATOM     34  N   UNL d   1     -29.191  22.939  23.093  0.00  0.00    -0.149 NA
ATOM     35  C   UNL d   1     -31.566  22.126  22.972  0.00  0.00     0.081 C 
ATOM     36  C   UNL d   1     -32.519  21.657  24.080  0.00  0.00     0.009 C 
ATOM     37  C   UNL d   1     -31.897  20.453  24.796  0.00  0.00     0.021 C 
ENDBRANCH   3  28
TORSDOF 6
ENDMDL
