MODEL 1
REMARK VINA RESULT:     -11.5      0.000      0.000
REMARK  4 active torsions:
REMARK  status: ('A' for Active; 'I' for Inactive)
REMARK    1  A    between atoms: C_2  and  O_3 
REMARK    2  A    between atoms: C_2  and  C_4 
REMARK    3  A    between atoms: C_12  and  C_13 
REMARK    4  A    between atoms: C_16  and  C_17 
ROOT
ATOM      1  C   UNL d   1     -32.611  21.585  22.804  0.00  0.00     0.071 A 
ATOM      2  C   UNL d   1     -33.591  21.049  23.640  0.00  0.00     0.063 A 
ATOM      3  C   UNL d   1     -33.257  20.585  24.900  0.00  0.00     0.119 A 
ATOM      4  F   UNL d   1     -34.217  20.070  25.699  0.00  0.00    -0.206 F 
ATOM      5  C   UNL d   1     -31.949  20.645  25.350  0.00  0.00     0.074 A 
ATOM      6  C   UNL d   1     -30.956  21.172  24.540  0.00  0.00     0.067 A 
ATOM      7  N   UNL d   1     -29.596  21.365  24.695  0.00  0.00    -0.338 N 
ATOM      8  H   UNL d   1     -29.068  21.139  25.477  0.00  0.00     0.167 HD
ATOM      9  C   UNL d   1     -29.137  21.935  23.540  0.00  0.00     0.139 A 
ATOM     10  N   UNL d   1     -30.135  22.103  22.703  0.00  0.00    -0.227 NA
ATOM     11  C   UNL d   1     -31.274  21.649  23.255  0.00  0.00     0.103 A 
ENDROOT
BRANCH   9  12
ATOM     12  C   UNL d   1     -27.733  22.312  23.276  0.00  0.00     0.010 A 
ATOM     13  C   UNL d   1     -27.119  23.303  24.046  0.00  0.00     0.016 A 
ATOM     14  C   UNL d   1     -25.809  23.650  23.804  0.00  0.00     0.013 A 
ATOM     15  C   UNL d   1     -25.098  23.020  22.782  0.00  0.00    -0.025 A 
ATOM     16  C   UNL d   1     -25.711  22.030  22.013  0.00  0.00     0.013 A 
ATOM     17  C   UNL d   1     -27.019  21.678  22.257  0.00  0.00     0.016 A 
BRANCH  15  18
ATOM     18  C   UNL d   1     -23.689  23.398  22.517  0.00  0.00    -0.008 A 
ATOM     19  C   UNL d   1     -23.302  23.849  21.257  0.00  0.00     0.128 A 
ATOM     20  N   UNL d   1     -22.051  24.186  21.021  0.00  0.00    -0.272 NA
ATOM     21  C   UNL d   1     -21.122  24.112  21.955  0.00  0.00     0.116 A 
ATOM     22  C   UNL d   1     -21.427  23.675  23.231  0.00  0.00     0.020 A 
ATOM     23  C   UNL d   1     -22.728  23.309  23.529  0.00  0.00     0.015 A 
ENDBRANCH  15  18
ENDBRANCH   9  12
BRANCH   1  24
ATOM     24  C   UNL d   1     -32.967  22.077  21.464  0.00  0.00     0.178 C 
ATOM     25  O   UNL d   1     -34.095  22.468  21.241  0.00  0.00    -0.646 OA
BRANCH  24  26
ATOM     26  O   UNL d   1     -32.042  22.094  20.484  0.00  0.00    -0.773 OA
ATOM     27  H   UNL d   1     -31.432  22.843  20.468  0.00  0.00     0.167 HD
ENDBRANCH  24  26
ENDBRANCH   1  24
TORSDOF 4
ENDMDL
