MODEL 1
REMARK VINA RESULT:     -10.4      0.000      0.000
REMARK  7 active torsions:
REMARK  status: ('A' for Active; 'I' for Inactive)
REMARK    1  A    between atoms: C_2  and  C_3 
REMARK    2  A    between atoms: C_3  and  O_4 
REMARK    3  A    between atoms: C_5  and  C_8 
REMARK       I    between atoms: C_8  and  N_10 
REMARK    4  A    between atoms: N_10  and  C_11 
REMARK    5  A    between atoms: C_14  and  C_15 
REMARK    6  A    between atoms: C_22  and  C_23 
REMARK    7  A    between atoms: C_23  and  O_25 
ROOT
ATOM      1  C   UNL d   1     -32.283  21.757  22.692  0.00  0.00     0.069 C 
ATOM      2  C   UNL d   1     -31.366  21.909  23.691  0.00  0.00     0.141 C 
ATOM      3  C   UNL d   1     -31.714  21.573  25.038  0.00  0.00     0.107 C 
ATOM      4  N   UNL d   1     -31.990  21.306  26.107  0.00  0.00    -0.191 NA
ENDROOT
BRANCH   2   5
ATOM      5  C   UNL d   1     -30.022  22.417  23.382  0.00  0.00     0.269 C 
ATOM      6  O   UNL d   1     -29.858  23.180  22.450  0.00  0.00    -0.266 OA
ATOM      7  N   UNL d   1     -28.970  22.036  24.135  0.00  0.00    -0.322 N 
ATOM      8  H   UNL d   1     -29.110  21.490  24.924  0.00  0.00     0.169 HD
BRANCH   7   9
ATOM      9  C   UNL d   1     -27.676  22.430  23.778  0.00  0.00     0.036 A 
ATOM     10  C   UNL d   1     -27.064  21.866  22.669  0.00  0.00     0.048 A 
ATOM     11  C   UNL d   1     -25.776  22.262  22.310  0.00  0.00     0.052 A 
ATOM     12  C   UNL d   1     -25.103  23.225  23.085  0.00  0.00    -0.009 A 
ATOM     13  C   UNL d   1     -25.733  23.781  24.195  0.00  0.00     0.015 A 
ATOM     14  C   UNL d   1     -27.009  23.385  24.537  0.00  0.00     0.030 A 
BRANCH  11  15
ATOM     15  C   UNL d   1     -25.120  21.671  21.129  0.00  0.00     0.293 C 
ATOM     16  O   UNL d   1     -24.328  20.760  21.266  0.00  0.00    -0.259 OA
BRANCH  15  17
ATOM     17  O   UNL d   1     -25.401  22.140  19.897  0.00  0.00    -0.322 OA
ATOM     18  C   UNL d   1     -24.273  22.407  19.021  0.00  0.00     0.213 C 
ENDBRANCH  15  17
ENDBRANCH  11  15
BRANCH  12  19
ATOM     19  C   UNL d   1     -23.733  23.650  22.716  0.00  0.00    -0.025 A 
ATOM     20  C   UNL d   1     -23.542  24.628  21.741  0.00  0.00     0.015 A 
ATOM     21  C   UNL d   1     -22.265  25.020  21.400  0.00  0.00     0.043 A 
ATOM     22  C   UNL d   1     -21.170  24.448  22.030  0.00  0.00     0.116 A 
ATOM     23  C   UNL d   1     -21.355  23.472  22.998  0.00  0.00     0.043 A 
ATOM     24  F   UNL d   1     -19.921  24.839  21.699  0.00  0.00    -0.206 F 
ATOM     25  C   UNL d   1     -22.629  23.073  23.344  0.00  0.00     0.015 A 
ENDBRANCH  12  19
ENDBRANCH   7   9
ENDBRANCH   2   5
BRANCH   1  26
ATOM     26  C   UNL d   1     -33.661  21.237  23.007  0.00  0.00     0.061 C 
ATOM     27  C   UNL d   1     -34.091  20.242  21.927  0.00  0.00     0.012 C 
ENDBRANCH   1  26
BRANCH   1  28
ATOM     28  O   UNL d   1     -31.956  22.073  21.427  0.00  0.00    -0.363 OA
ATOM     29  H   UNL d   1     -31.149  21.678  21.071  0.00  0.00     0.217 HD
ENDBRANCH   1  28
TORSDOF 7
ENDMDL
