MODEL 1
REMARK VINA RESULT:      -9.5      0.000      0.000
REMARK  6 active torsions:
REMARK  status: ('A' for Active; 'I' for Inactive)
REMARK    1  A    between atoms: C_2  and  N_3 
REMARK       I    between atoms: N_3  and  C_4 
REMARK       I    between atoms: C_4  and  N_6 
REMARK    2  A    between atoms: N_6  and  C_7 
REMARK    3  A    between atoms: C_10  and  S_11 
REMARK    4  A    between atoms: S_11  and  O_14 
REMARK    5  A    between atoms: O_14  and  C_15 
REMARK    6  A    between atoms: C_20  and  C_21 
ROOT
ATOM      1  C   UNL d   1     -28.077  22.330  23.542  0.00  0.00     0.036 A 
ATOM      2  C   UNL d   1     -27.578  21.608  22.467  0.00  0.00     0.031 A 
ATOM      3  C   UNL d   1     -26.288  21.833  22.026  0.00  0.00     0.028 A 
ATOM      4  C   UNL d   1     -25.495  22.775  22.654  0.00  0.00     0.086 A 
ATOM      5  C   UNL d   1     -25.989  23.492  23.729  0.00  0.00     0.028 A 
ATOM      6  C   UNL d   1     -27.279  23.276  24.171  0.00  0.00     0.031 A 
ENDROOT
BRANCH   4   7
ATOM      7  S   UNL d   1     -23.850  23.059  22.090  0.00  0.00     0.303 S 
ATOM      8  O   UNL d   1     -23.717  22.345  20.868  0.00  0.00    -0.193 OA
ATOM      9  O   UNL d   1     -23.001  22.851  23.209  0.00  0.00    -0.193 OA
BRANCH   7  10
ATOM     10  O   UNL d   1     -23.743  24.536  21.737  0.00  0.00    -0.229 OA
BRANCH  10  11
ATOM     11  C   UNL d   1     -22.941  25.246  22.572  0.00  0.00     0.096 A 
ATOM     12  C   UNL d   1     -21.576  25.315  22.332  0.00  0.00    -0.024 A 
ATOM     13  C   UNL d   1     -20.762  26.038  23.183  0.00  0.00     0.010 A 
ATOM     14  C   UNL d   1     -21.306  26.693  24.272  0.00  0.00     0.001 A 
ATOM     15  C   UNL d   1     -22.666  26.626  24.513  0.00  0.00     0.003 A 
ATOM     16  C   UNL d   1     -23.485  25.905  23.666  0.00  0.00     0.039 A 
BRANCH  12  17
ATOM     17  C   UNL d   1     -20.982  24.601  21.146  0.00  0.00     0.037 C 
ATOM     18  C   UNL d   1     -19.656  23.953  21.552  0.00  0.00     0.010 C 
ENDBRANCH  12  17
ENDBRANCH  10  11
ENDBRANCH   7  10
ENDBRANCH   4   7
BRANCH   1  19
ATOM     19  N   UNL d   1     -29.384  22.104  23.992  0.00  0.00    -0.309 N 
ATOM     20  C   UNL d   1     -30.421  22.227  23.140  0.00  0.00     0.320 C 
ATOM     21  N   UNL d   1     -31.684  22.116  23.595  0.00  0.00    -0.343 N 
ATOM     22  O   UNL d   1     -30.216  22.437  21.959  0.00  0.00    -0.247 OA
ATOM     23  H   UNL d   1     -31.847  21.948  24.536  0.00  0.00     0.164 HD
ATOM     24  H   UNL d   1     -29.543  21.859  24.917  0.00  0.00     0.170 HD
BRANCH  21  25
ATOM     25  C   UNL d   1     -32.811  22.248  22.668  0.00  0.00     0.120 C 
ATOM     26  C   UNL d   1     -33.575  20.924  22.602  0.00  0.00     0.026 C 
ENDBRANCH  21  25
ENDBRANCH   1  19
TORSDOF 6
ENDMDL
