MODEL 1
REMARK VINA RESULT:     -12.0      0.000      0.000
REMARK  4 active torsions:
REMARK  status: ('A' for Active; 'I' for Inactive)
REMARK    1  A    between atoms: C_2  and  O_3 
REMARK    2  A    between atoms: C_2  and  C_4 
REMARK    3  A    between atoms: C_6  and  C_7 
REMARK    4  A    between atoms: C_10  and  C_11 
ROOT
ATOM      1  C   UNL d   1     -30.475  21.451  24.593  0.00  0.00     0.052 A 
ATOM      2  C   UNL d   1     -29.133  21.754  24.402  0.00  0.00     0.051 A 
ATOM      3  C   UNL d   1     -28.699  22.188  23.141  0.00  0.00     0.068 A 
ATOM      4  N   UNL d   1     -29.521  22.323  22.121  0.00  0.00    -0.247 NA
ATOM      5  C   UNL d   1     -30.823  22.054  22.215  0.00  0.00     0.068 A 
ATOM      6  C   UNL d   1     -31.679  22.206  21.106  0.00  0.00     0.032 A 
ATOM      7  C   UNL d   1     -33.004  21.924  21.234  0.00  0.00     0.002 A 
ATOM      8  C   UNL d   1     -33.533  21.486  22.445  0.00  0.00     0.001 A 
ATOM      9  C   UNL d   1     -32.736  21.325  23.540  0.00  0.00     0.015 A 
ATOM     10  C   UNL d   1     -31.368  21.607  23.445  0.00  0.00     0.010 A 
ENDROOT
BRANCH   3  11
ATOM     11  C   UNL d   1     -27.265  22.508  22.950  0.00  0.00    -0.007 A 
ATOM     12  C   UNL d   1     -26.658  23.492  23.732  0.00  0.00     0.014 A 
ATOM     13  C   UNL d   1     -25.325  23.788  23.554  0.00  0.00     0.013 A 
ATOM     14  C   UNL d   1     -24.582  23.105  22.592  0.00  0.00    -0.025 A 
ATOM     15  C   UNL d   1     -25.187  22.121  21.810  0.00  0.00     0.013 A 
ATOM     16  C   UNL d   1     -26.518  21.821  21.991  0.00  0.00     0.014 A 
BRANCH  14  17
ATOM     17  C   UNL d   1     -23.145  23.425  22.400  0.00  0.00    -0.008 A 
ATOM     18  C   UNL d   1     -22.681  23.882  21.169  0.00  0.00     0.132 A 
ATOM     19  N   UNL d   1     -21.406  24.166  20.997  0.00  0.00    -0.232 NA
ATOM     20  C   UNL d   1     -20.525  24.031  21.971  0.00  0.00     0.209 A 
ATOM     21  C   UNL d   1     -20.910  23.580  23.224  0.00  0.00     0.064 A 
ATOM     22  F   UNL d   1     -19.228  24.336  21.743  0.00  0.00    -0.184 F 
ATOM     23  C   UNL d   1     -22.238  23.275  23.455  0.00  0.00     0.018 A 
ENDBRANCH  14  17
ENDBRANCH   3  11
BRANCH   1  24
ATOM     24  C   UNL d   1     -30.980  20.987  25.903  0.00  0.00     0.177 C 
ATOM     25  O   UNL d   1     -31.732  21.690  26.547  0.00  0.00    -0.646 OA
BRANCH  24  26
ATOM     26  O   UNL d   1     -30.605  19.785  26.382  0.00  0.00    -0.773 OA
ATOM     27  H   UNL d   1     -31.164  19.030  26.158  0.00  0.00     0.167 HD
ENDBRANCH  24  26
ENDBRANCH   1  24
TORSDOF 4
ENDMDL
