MODEL 1
REMARK VINA RESULT:     -11.0      0.000      0.000
REMARK  7 active torsions:
REMARK  status: ('A' for Active; 'I' for Inactive)
REMARK    1  A    between atoms: C_2  and  O_3 
REMARK    2  A    between atoms: C_2  and  C_4 
REMARK    3  A    between atoms: C_5  and  C_6 
REMARK       I    between atoms: C_6  and  N_8 
REMARK    4  A    between atoms: N_8  and  C_9 
REMARK    5  A    between atoms: C_13  and  O_14 
REMARK    6  A    between atoms: O_14  and  C_15 
REMARK    7  A    between atoms: C_15  and  C_16 
ROOT
ATOM      1  C   UNL d   1     -25.645  22.948  23.484  0.00  0.00     0.037 A 
ATOM      2  C   UNL d   1     -26.322  22.911  24.696  0.00  0.00     0.051 A 
ATOM      3  C   UNL d   1     -27.624  22.450  24.746  0.00  0.00     0.048 A 
ATOM      4 BR   UNL d   1     -28.548  22.400  26.394  0.00  0.00    -0.048 Br
ATOM      5  C   UNL d   1     -28.254  22.026  23.584  0.00  0.00     0.104 A 
ATOM      6  C   UNL d   1     -27.576  22.058  22.374  0.00  0.00     0.048 A 
ATOM      7 BR   UNL d   1     -28.433  21.471  20.794  0.00  0.00    -0.048 Br
ATOM      8  C   UNL d   1     -26.276  22.523  22.323  0.00  0.00     0.051 A 
ENDROOT
BRANCH   1   9
ATOM      9  N   UNL d   1     -24.327  23.414  23.434  0.00  0.00    -0.323 N 
ATOM     10  C   UNL d   1     -24.083  24.736  23.339  0.00  0.00     0.253 C 
ATOM     11  O   UNL d   1     -25.001  25.530  23.403  0.00  0.00    -0.268 OA
ATOM     12  H   UNL d   1     -23.588  22.786  23.468  0.00  0.00     0.169 HD
BRANCH  10  13
ATOM     13  C   UNL d   1     -22.701  25.221  23.155  0.00  0.00     0.023 C 
ATOM     14  C   UNL d   1     -22.019  25.165  22.003  0.00  0.00     0.027 C 
ATOM     15  C   UNL d   1     -20.637  25.750  22.176  0.00  0.00     0.046 C 
ATOM     16  C   UNL d   1     -20.409  25.788  23.704  0.00  0.00     0.010 C 
ATOM     17  C   UNL d   1     -21.860  25.855  24.238  0.00  0.00     0.045 C 
BRANCH  14  18
ATOM     18  C   UNL d   1     -22.545  24.611  20.741  0.00  0.00     0.172 C 
ATOM     19  O   UNL d   1     -22.850  23.438  20.673  0.00  0.00    -0.646 OA
BRANCH  18  20
ATOM     20  O   UNL d   1     -22.687  25.407  19.662  0.00  0.00    -0.773 OA
ATOM     21  H   UNL d   1     -23.177  26.231  19.787  0.00  0.00     0.167 HD
ENDBRANCH  18  20
ENDBRANCH  14  18
ENDBRANCH  10  13
ENDBRANCH   1   9
BRANCH   5  22
ATOM     22  O   UNL d   1     -29.536  21.573  23.633  0.00  0.00    -0.344 OA
BRANCH  22  23
ATOM     23  C   UNL d   1     -30.573  22.535  23.431  0.00  0.00     0.219 C 
BRANCH  23  24
ATOM     24  C   UNL d   1     -31.840  21.830  23.022  0.00  0.00     0.026 A 
ATOM     25  C   UNL d   1     -32.604  21.177  23.971  0.00  0.00     0.045 A 
ATOM     26  C   UNL d   1     -33.769  20.529  23.596  0.00  0.00     0.024 A 
ATOM     27 CL   UNL d   1     -32.104  21.168  25.633  0.00  0.00    -0.084 Cl
ATOM     28  C   UNL d   1     -34.167  20.536  22.272  0.00  0.00     0.005 A 
ATOM     29  C   UNL d   1     -33.405  21.189  21.323  0.00  0.00     0.043 A 
ATOM     30  C   UNL d   1     -32.243  21.842  21.698  0.00  0.00     0.126 A 
ATOM     31  F   UNL d   1     -31.500  22.486  20.771  0.00  0.00    -0.205 F 
ENDBRANCH  23  24
ENDBRANCH  22  23
ENDBRANCH   5  22
TORSDOF 7
ENDMDL
