MODEL 1
REMARK VINA RESULT:      -9.4      0.000      0.000
REMARK  7 active torsions:
REMARK  status: ('A' for Active; 'I' for Inactive)
REMARK    1  A    between atoms: C_2  and  C_3 
REMARK    2  A    between atoms: C_3  and  O_5 
REMARK    3  A    between atoms: O_5  and  C_6 
REMARK    4  A    between atoms: C_8  and  N_9 
REMARK       I    between atoms: N_9  and  C_10 
REMARK    5  A    between atoms: C_10  and  C_12 
REMARK    6  A    between atoms: C_15  and  O_17 
REMARK    7  A    between atoms: C_21  and  C_22 
ROOT
ATOM      1  C   UNL d   1     -31.886  21.164  23.929  0.00  0.00     0.141 C 
ATOM      2  C   UNL d   1     -32.215  20.382  25.083  0.00  0.00     0.107 C 
ATOM      3  N   UNL d   1     -32.477  19.762  25.997  0.00  0.00    -0.191 NA
ATOM      4  C   UNL d   1     -32.736  21.203  22.865  0.00  0.00     0.065 C 
ATOM      5  C   UNL d   1     -34.025  20.423  22.902  0.00  0.00     0.077 C 
ENDROOT
BRANCH   1   6
ATOM      6  C   UNL d   1     -30.628  21.926  23.893  0.00  0.00     0.269 C 
ATOM      7  N   UNL d   1     -29.466  21.323  24.208  0.00  0.00    -0.320 N 
ATOM      8  H   UNL d   1     -29.466  20.412  24.540  0.00  0.00     0.169 HD
ATOM      9  O   UNL d   1     -30.638  23.102  23.579  0.00  0.00    -0.266 OA
BRANCH   7  10
ATOM     10  C   UNL d   1     -28.258  22.011  24.059  0.00  0.00     0.076 A 
ATOM     11  C   UNL d   1     -27.706  22.174  22.796  0.00  0.00     0.070 A 
ATOM     12  C   UNL d   1     -26.510  22.855  22.645  0.00  0.00     0.082 A 
ATOM     13  C   UNL d   1     -25.857  23.372  23.768  0.00  0.00     0.011 A 
ATOM     14  C   UNL d   1     -26.419  23.211  25.034  0.00  0.00     0.059 A 
ATOM     15  C   UNL d   1     -27.611  22.531  25.177  0.00  0.00     0.144 A 
ATOM     16  F   UNL d   1     -28.153  22.371  26.405  0.00  0.00    -0.204 F 
BRANCH  12  17
ATOM     17  O   UNL d   1     -25.969  23.015  21.409  0.00  0.00    -0.345 OA
BRANCH  17  18
ATOM     18  C   UNL d   1     -25.595  21.829  20.706  0.00  0.00     0.124 C 
ATOM     19  C   UNL d   1     -24.726  20.953  21.610  0.00  0.00     0.040 C 
BRANCH  18  20
ATOM     20  C   UNL d   1     -24.806  22.207  19.451  0.00  0.00     0.027 C 
ATOM     21  C   UNL d   1     -23.718  23.218  19.819  0.00  0.00     0.007 C 
ENDBRANCH  18  20
ENDBRANCH  17  18
ENDBRANCH  12  17
BRANCH  13  22
ATOM     22  C   UNL d   1     -24.574  24.097  23.613  0.00  0.00    -0.017 A 
ATOM     23  C   UNL d   1     -24.542  25.492  23.543  0.00  0.00     0.075 A 
ATOM     24  C   UNL d   1     -23.322  26.128  23.398  0.00  0.00     0.210 A 
ATOM     25  N   UNL d   1     -22.200  25.434  23.326  0.00  0.00    -0.233 NA
ATOM     26  F   UNL d   1     -23.277  27.477  23.328  0.00  0.00    -0.184 F 
ATOM     27  C   UNL d   1     -22.190  24.115  23.390  0.00  0.00     0.120 A 
ATOM     28  C   UNL d   1     -23.360  23.403  23.539  0.00  0.00     0.032 A 
ENDBRANCH  13  22
ENDBRANCH   7  10
ENDBRANCH   1   6
BRANCH   4  29
ATOM     29  O   UNL d   1     -32.426  21.938  21.782  0.00  0.00    -0.364 OA
ATOM     30  H   UNL d   1     -31.821  21.541  21.142  0.00  0.00     0.217 HD
ENDBRANCH   4  29
TORSDOF 7
ENDMDL
