MODEL 1
REMARK VINA RESULT:      -8.9      0.000      0.000
REMARK  7 active torsions:
REMARK  status: ('A' for Active; 'I' for Inactive)
REMARK    1  A    between atoms: C_2  and  O_3 
REMARK    2  A    between atoms: C_2  and  C_34 
REMARK    3  A    between atoms: O_3  and  C_4 
REMARK    4  A    between atoms: C_6  and  N_7 
REMARK    5  A    between atoms: C_20  and  C_21 
REMARK       I    between atoms: C_21  and  N_23 
REMARK    6  A    between atoms: N_23  and  C_24 
REMARK    7  A    between atoms: C_28  and  C_29 
ROOT
ATOM      1  C   UNL d   1     -20.090  24.778  23.730  0.00  0.00     0.087 A 
ATOM      2  C   UNL d   1     -21.384  24.290  23.732  0.00  0.00     0.073 A 
ATOM      3  C   UNL d   1     -22.024  24.010  22.533  0.00  0.00     0.104 A 
ATOM      4  C   UNL d   1     -21.370  24.230  21.320  0.00  0.00     0.146 A 
ATOM      5  F   UNL d   1     -22.000  23.960  20.157  0.00  0.00    -0.204 F 
ATOM      6  C   UNL d   1     -20.083  24.722  21.307  0.00  0.00     0.064 A 
ATOM      7  C   UNL d   1     -19.430  25.000  22.513  0.00  0.00     0.068 A 
ENDROOT
BRANCH   7   8
ATOM      8  C   UNL d   1     -18.054  25.527  22.502  0.00  0.00     0.259 C 
ATOM      9  O   UNL d   1     -17.117  24.773  22.321  0.00  0.00    -0.267 OA
ATOM     10  N   UNL d   1     -17.835  26.843  22.692  0.00  0.00    -0.323 N 
ATOM     11  H   UNL d   1     -18.584  27.455  22.760  0.00  0.00     0.169 HD
BRANCH  10  12
ATOM     12  C   UNL d   1     -16.526  27.327  22.790  0.00  0.00     0.035 A 
ATOM     13  C   UNL d   1     -16.292  28.694  22.853  0.00  0.00     0.045 A 
ATOM     14  C   UNL d   1     -14.997  29.167  22.950  0.00  0.00     0.050 A 
ATOM     15  C   UNL d   1     -13.937  28.282  22.986  0.00  0.00     0.016 A 
ATOM     16  C   UNL d   1     -14.166  26.920  22.923  0.00  0.00     0.003 A 
ATOM     17  C   UNL d   1     -15.458  26.439  22.831  0.00  0.00     0.029 A 
BRANCH  14  18
ATOM     18  C   UNL d   1     -14.743  30.652  23.018  0.00  0.00     0.417 C 
ATOM     19  F   UNL d   1     -14.303  30.991  24.302  0.00  0.00    -0.166 F 
ATOM     20  F   UNL d   1     -13.763  31.000  22.083  0.00  0.00    -0.166 F 
ATOM     21  F   UNL d   1     -15.926  31.341  22.732  0.00  0.00    -0.166 F 
ENDBRANCH  14  18
ENDBRANCH  10  12
ENDBRANCH   7   8
BRANCH   1  22
ATOM     22  O   UNL d   1     -19.462  25.047  24.903  0.00  0.00    -0.341 OA
BRANCH  22  23
ATOM     23  C   UNL d   1     -19.725  26.318  25.503  0.00  0.00     0.158 C 
ATOM     24  C   UNL d   1     -20.600  26.123  26.744  0.00  0.00     0.045 C 
BRANCH  23  25
ATOM     25  C   UNL d   1     -18.424  26.964  25.902  0.00  0.00    -0.029 A 
ATOM     26  C   UNL d   1     -17.306  26.184  26.132  0.00  0.00     0.010 A 
ATOM     27  C   UNL d   1     -16.112  26.778  26.498  0.00  0.00     0.001 A 
ATOM     28  C   UNL d   1     -16.037  28.151  26.635  0.00  0.00     0.000 A 
ATOM     29  C   UNL d   1     -17.155  28.932  26.406  0.00  0.00     0.001 A 
ATOM     30  C   UNL d   1     -18.347  28.338  26.035  0.00  0.00     0.010 A 
ENDBRANCH  23  25
ENDBRANCH  22  23
ENDBRANCH   1  22
BRANCH   3  31
ATOM     31  N   UNL d   1     -23.329  23.512  22.539  0.00  0.00    -0.178 N 
ATOM     32  C   UNL d   1     -24.376  24.022  23.224  0.00  0.00     0.351 A 
ATOM     33  N   UNL d   1     -25.449  23.268  22.933  0.00  0.00    -0.284 N 
ATOM     34  O   UNL d   1     -24.352  24.986  23.968  0.00  0.00    -0.244 OA
ATOM     35  C   UNL d   1     -25.051  22.254  22.088  0.00  0.00     0.131 A 
ATOM     36  C   UNL d   1     -26.828  23.465  23.394  0.00  0.00     0.135 C 
ATOM     37  N   UNL d   1     -23.794  22.389  21.838  0.00  0.00    -0.149 NA
ATOM     38  C   UNL d   1     -25.978  21.178  21.573  0.00  0.00     0.081 C 
ATOM     39  C   UNL d   1     -27.422  21.666  21.760  0.00  0.00     0.009 C 
ATOM     40  C   UNL d   1     -27.601  22.154  23.201  0.00  0.00     0.021 C 
ENDBRANCH   3  31
TORSDOF 7
ENDMDL
