MODEL 1
REMARK VINA RESULT:     -10.3      0.000      0.000
REMARK  8 active torsions:
REMARK  status: ('A' for Active; 'I' for Inactive)
REMARK    1  A    between atoms: C_2  and  O_3 
REMARK    2  A    between atoms: C_2  and  C_32 
REMARK    3  A    between atoms: O_3  and  C_4 
REMARK    4  A    between atoms: C_6  and  N_7 
REMARK    5  A    between atoms: C_9  and  C_10 
REMARK    6  A    between atoms: C_10  and  O_13 
REMARK    7  A    between atoms: C_20  and  C_21 
REMARK       I    between atoms: C_21  and  N_23 
REMARK    8  A    between atoms: N_23  and  C_24 
ROOT
ATOM      1  C   UNL d   1     -24.868  23.332  22.663  0.00  0.00     0.087 A 
ATOM      2  C   UNL d   1     -26.124  22.771  22.818  0.00  0.00     0.069 A 
ATOM      3  C   UNL d   1     -27.014  23.311  23.738  0.00  0.00     0.066 A 
ATOM      4  C   UNL d   1     -26.647  24.411  24.507  0.00  0.00     0.033 A 
ATOM      5  C   UNL d   1     -25.408  24.969  24.367  0.00  0.00     0.022 A 
ATOM      6  C   UNL d   1     -24.500  24.438  23.445  0.00  0.00     0.065 A 
ENDROOT
BRANCH   3   7
ATOM      7  N   UNL d   1     -28.283  22.748  23.890  0.00  0.00    -0.181 N 
ATOM      8  C   UNL d   1     -28.702  21.988  24.923  0.00  0.00     0.351 A 
ATOM      9  N   UNL d   1     -29.985  21.653  24.682  0.00  0.00    -0.286 N 
ATOM     10  O   UNL d   1     -28.043  21.667  25.896  0.00  0.00    -0.244 OA
ATOM     11  C   UNL d   1     -30.358  22.205  23.482  0.00  0.00     0.164 A 
ATOM     12  C   UNL d   1     -30.834  20.833  25.550  0.00  0.00     0.163 C 
ATOM     13  N   UNL d   1     -29.356  22.863  22.995  0.00  0.00    -0.146 NA
BRANCH  11  14
ATOM     14  C   UNL d   1     -31.714  22.068  22.838  0.00  0.00     0.112 C 
ATOM     15  C   UNL d   1     -31.556  22.050  21.316  0.00  0.00     0.054 C 
ATOM     16  C   UNL d   1     -32.368  20.764  23.298  0.00  0.00     0.054 C 
BRANCH  14  17
ATOM     17  O   UNL d   1     -32.537  23.173  23.217  0.00  0.00    -0.383 OA
ATOM     18  H   UNL d   1     -32.042  23.970  23.451  0.00  0.00     0.211 HD
ENDBRANCH  14  17
ENDBRANCH  11  14
ENDBRANCH   3   7
BRANCH   1  19
ATOM     19  O   UNL d   1     -23.996  22.813  21.764  0.00  0.00    -0.336 OA
BRANCH  19  20
ATOM     20  C   UNL d   1     -24.034  23.348  20.439  0.00  0.00     0.232 C 
ATOM     21  C   UNL d   1     -22.624  23.764  20.016  0.00  0.00     0.049 C 
BRANCH  20  22
ATOM     22  C   UNL d   1     -24.563  22.284  19.475  0.00  0.00     0.413 C 
ATOM     23  F   UNL d   1     -24.561  22.794  18.172  0.00  0.00    -0.168 F 
ATOM     24  F   UNL d   1     -23.743  21.152  19.535  0.00  0.00    -0.168 F 
ATOM     25  F   UNL d   1     -25.868  21.935  19.837  0.00  0.00    -0.168 F 
ENDBRANCH  20  22
ENDBRANCH  19  20
ENDBRANCH   1  19
BRANCH   6  26
ATOM     26  C   UNL d   1     -23.165  25.040  23.292  0.00  0.00     0.259 C 
ATOM     27  O   UNL d   1     -23.029  26.061  22.647  0.00  0.00    -0.267 OA
ATOM     28  N   UNL d   1     -22.093  24.458  23.867  0.00  0.00    -0.319 N 
ATOM     29  H   UNL d   1     -22.187  23.602  24.313  0.00  0.00     0.169 HD
BRANCH  28  30
ATOM     30  C   UNL d   1     -20.845  25.091  23.821  0.00  0.00     0.096 A 
ATOM     31  C   UNL d   1     -20.562  26.136  24.691  0.00  0.00     0.064 A 
ATOM     32  C   UNL d   1     -19.328  26.760  24.641  0.00  0.00     0.026 A 
ATOM     33 CL   UNL d   1     -21.756  26.661  25.837  0.00  0.00    -0.082 Cl
ATOM     34  C   UNL d   1     -18.377  26.343  23.730  0.00  0.00     0.005 A 
ATOM     35  C   UNL d   1     -18.652  25.299  22.866  0.00  0.00     0.045 A 
ATOM     36  C   UNL d   1     -19.886  24.674  22.905  0.00  0.00     0.144 A 
ATOM     37  F   UNL d   1     -20.157  23.657  22.058  0.00  0.00    -0.204 F 
ENDBRANCH  28  30
ENDBRANCH   6  26
TORSDOF 8
ENDMDL
