MODEL 1
REMARK VINA RESULT:      -9.9      0.000      0.000
REMARK  6 active torsions:
REMARK  status: ('A' for Active; 'I' for Inactive)
REMARK    1  A    between atoms: C_2  and  O_3 
REMARK    2  A    between atoms: C_2  and  C_27 
REMARK    3  A    between atoms: O_3  and  C_4 
REMARK    4  A    between atoms: C_6  and  N_7 
REMARK    5  A    between atoms: C_20  and  C_21 
REMARK       I    between atoms: C_21  and  N_23 
REMARK    6  A    between atoms: N_23  and  C_24 
ROOT
ATOM      1  C   UNL d   1     -24.569  23.605  22.843  0.00  0.00     0.087 A 
ATOM      2  C   UNL d   1     -25.751  22.950  23.144  0.00  0.00     0.073 A 
ATOM      3  C   UNL d   1     -26.639  23.503  24.058  0.00  0.00     0.104 A 
ATOM      4  C   UNL d   1     -26.343  24.718  24.676  0.00  0.00     0.146 A 
ATOM      5  F   UNL d   1     -27.211  25.251  25.564  0.00  0.00    -0.204 F 
ATOM      6  C   UNL d   1     -25.171  25.377  24.383  0.00  0.00     0.064 A 
ATOM      7  C   UNL d   1     -24.268  24.824  23.468  0.00  0.00     0.068 A 
ENDROOT
BRANCH   3   8
ATOM      8  N   UNL d   1     -27.831  22.841  24.358  0.00  0.00    -0.178 N 
ATOM      9  C   UNL d   1     -28.095  22.141  25.483  0.00  0.00     0.351 A 
ATOM     10  N   UNL d   1     -29.357  21.690  25.387  0.00  0.00    -0.284 N 
ATOM     11  O   UNL d   1     -27.332  21.953  26.412  0.00  0.00    -0.244 OA
ATOM     12  C   UNL d   1     -29.868  22.087  24.167  0.00  0.00     0.131 A 
ATOM     13  C   UNL d   1     -30.113  20.930  26.388  0.00  0.00     0.135 C 
ATOM     14  N   UNL d   1     -28.977  22.785  23.550  0.00  0.00    -0.149 NA
ATOM     15  C   UNL d   1     -31.251  21.722  23.679  0.00  0.00     0.081 C 
ATOM     16  C   UNL d   1     -32.085  21.290  24.893  0.00  0.00     0.009 C 
ATOM     17  C   UNL d   1     -31.298  20.249  25.695  0.00  0.00     0.021 C 
ENDBRANCH   3   8
BRANCH   1  18
ATOM     18  O   UNL d   1     -23.701  23.065  21.950  0.00  0.00    -0.336 OA
BRANCH  18  19
ATOM     19  C   UNL d   1     -23.963  23.303  20.565  0.00  0.00     0.232 C 
ATOM     20  C   UNL d   1     -22.659  23.665  19.854  0.00  0.00     0.049 C 
BRANCH  19  21
ATOM     21  C   UNL d   1     -24.555  22.040  19.934  0.00  0.00     0.413 C 
ATOM     22  F   UNL d   1     -24.198  20.925  20.701  0.00  0.00    -0.168 F 
ATOM     23  F   UNL d   1     -25.949  22.149  19.891  0.00  0.00    -0.168 F 
ATOM     24  F   UNL d   1     -24.059  21.891  18.635  0.00  0.00    -0.168 F 
ENDBRANCH  19  21
ENDBRANCH  18  19
ENDBRANCH   1  18
BRANCH   7  25
ATOM     25  C   UNL d   1     -23.009  25.522  23.158  0.00  0.00     0.254 C 
ATOM     26  O   UNL d   1     -23.033  26.668  22.752  0.00  0.00    -0.268 OA
ATOM     27  N   UNL d   1     -21.830  24.891  23.325  0.00  0.00    -0.352 N 
ATOM     28  H   UNL d   1     -21.811  23.978  23.649  0.00  0.00     0.163 HD
BRANCH  27  29
ATOM     29  C   UNL d   1     -20.577  25.586  23.017  0.00  0.00     0.084 A 
ATOM     30  C   UNL d   1     -19.336  25.193  23.821  0.00  0.00     0.027 A 
ATOM     31  C   UNL d   1     -19.463  24.773  22.354  0.00  0.00     0.027 A 
ENDBRANCH  27  29
ENDBRANCH   7  25
TORSDOF 6
ENDMDL
