MODEL 1
REMARK VINA RESULT:     -10.7      0.000      0.000
REMARK  6 active torsions:
REMARK  status: ('A' for Active; 'I' for Inactive)
REMARK    1  A    between atoms: C_2  and  O_3 
REMARK    2  A    between atoms: C_2  and  C_33 
REMARK    3  A    between atoms: O_3  and  C_4 
REMARK    4  A    between atoms: C_6  and  N_7 
REMARK    5  A    between atoms: C_20  and  C_21 
REMARK       I    between atoms: C_21  and  N_23 
REMARK    6  A    between atoms: N_23  and  C_24 
ROOT
ATOM      1  C   UNL d   1     -24.514  23.528  22.812  0.00  0.00     0.087 A 
ATOM      2  C   UNL d   1     -25.768  22.963  22.963  0.00  0.00     0.073 A 
ATOM      3  C   UNL d   1     -26.662  23.491  23.885  0.00  0.00     0.104 A 
ATOM      4  C   UNL d   1     -26.301  24.592  24.661  0.00  0.00     0.146 A 
ATOM      5  F   UNL d   1     -27.175  25.101  25.556  0.00  0.00    -0.204 F 
ATOM      6  C   UNL d   1     -25.056  25.162  24.518  0.00  0.00     0.064 A 
ATOM      7  C   UNL d   1     -24.149  24.637  23.591  0.00  0.00     0.068 A 
ENDROOT
BRANCH   7   8
ATOM      8  C   UNL d   1     -22.816  25.242  23.435  0.00  0.00     0.259 C 
ATOM      9  O   UNL d   1     -22.669  26.213  22.716  0.00  0.00    -0.267 OA
ATOM     10  N   UNL d   1     -21.759  24.722  24.089  0.00  0.00    -0.320 N 
ATOM     11  H   UNL d   1     -21.860  23.903  24.598  0.00  0.00     0.169 HD
BRANCH  10  12
ATOM     12  C   UNL d   1     -20.516  25.364  24.031  0.00  0.00     0.079 A 
ATOM     13  C   UNL d   1     -19.582  24.987  23.075  0.00  0.00     0.065 A 
ATOM     14  C   UNL d   1     -18.355  25.622  23.019  0.00  0.00     0.068 A 
ATOM     15 CL   UNL d   1     -19.954  23.718  21.949  0.00  0.00    -0.082 Cl
ATOM     16  C   UNL d   1     -18.057  26.634  23.916  0.00  0.00     0.119 A 
ATOM     17  C   UNL d   1     -18.987  27.012  24.871  0.00  0.00     0.068 A 
ATOM     18  F   UNL d   1     -16.858  27.254  23.861  0.00  0.00    -0.206 F 
ATOM     19  C   UNL d   1     -20.217  26.384  24.926  0.00  0.00     0.065 A 
ATOM     20 CL   UNL d   1     -21.385  26.864  26.118  0.00  0.00    -0.082 Cl
ENDBRANCH  10  12
ENDBRANCH   7   8
BRANCH   1  21
ATOM     21  O   UNL d   1     -23.638  23.009  21.914  0.00  0.00    -0.336 OA
BRANCH  21  22
ATOM     22  C   UNL d   1     -23.903  23.254  20.532  0.00  0.00     0.232 C 
ATOM     23  C   UNL d   1     -22.601  23.620  19.819  0.00  0.00     0.049 C 
BRANCH  22  24
ATOM     24  C   UNL d   1     -24.496  21.994  19.896  0.00  0.00     0.413 C 
ATOM     25  F   UNL d   1     -23.963  21.825  18.613  0.00  0.00    -0.168 F 
ATOM     26  F   UNL d   1     -24.178  20.882  20.683  0.00  0.00    -0.168 F 
ATOM     27  F   UNL d   1     -25.886  22.124  19.810  0.00  0.00    -0.168 F 
ENDBRANCH  22  24
ENDBRANCH  21  22
ENDBRANCH   1  21
BRANCH   3  28
ATOM     28  N   UNL d   1     -27.926  22.918  24.036  0.00  0.00    -0.178 N 
ATOM     29  C   UNL d   1     -28.334  22.134  25.059  0.00  0.00     0.351 A 
ATOM     30  N   UNL d   1     -29.618  21.824  24.836  0.00  0.00    -0.280 N 
ATOM     31  O   UNL d   1     -27.659  21.778  26.008  0.00  0.00    -0.244 OA
ATOM     32  C   UNL d   1     -30.001  22.387  23.633  0.00  0.00     0.155 A 
ATOM     33  C   UNL d   1     -30.532  21.040  25.677  0.00  0.00     0.161 C 
ATOM     34  N   UNL d   1     -29.008  23.047  23.149  0.00  0.00    -0.147 NA
ATOM     35  C   UNL d   1     -31.382  22.201  23.047  0.00  0.00     0.248 C 
ATOM     36  O   UNL d   1     -32.237  21.726  24.097  0.00  0.00    -0.382 OA
ATOM     37  C   UNL d   1     -31.714  20.596  24.802  0.00  0.00     0.188 C 
ENDBRANCH   3  28
TORSDOF 6
ENDMDL
