MODEL 1
REMARK VINA RESULT:     -12.5      0.000      0.000
REMARK  3 active torsions:
REMARK  status: ('A' for Active; 'I' for Inactive)
REMARK    1  A    between atoms: C_3  and  C_4 
REMARK    2  A    between atoms: C_7  and  C_8 
REMARK    3  A    between atoms: C_25  and  C_26 
ROOT
ATOM      1  C   UNL d   1     -29.588  23.015  21.409  0.00  0.00     0.052 C 
ATOM      2  C   UNL d   1     -29.832  22.251  22.684  0.00  0.00    -0.017 A 
ATOM      3  C   UNL d   1     -28.764  21.953  23.544  0.00  0.00     0.074 A 
ATOM      4  N   UNL d   1     -28.931  21.283  24.666  0.00  0.00    -0.247 NA
ATOM      5  C   UNL d   1     -30.128  20.851  25.068  0.00  0.00     0.069 A 
ATOM      6  C   UNL d   1     -30.275  20.141  26.273  0.00  0.00     0.035 A 
ATOM      7  C   UNL d   1     -31.507  19.708  26.656  0.00  0.00     0.044 A 
ATOM      8  C   UNL d   1     -32.634  19.956  25.870  0.00  0.00     0.117 A 
ATOM      9  F   UNL d   1     -33.843  19.512  26.277  0.00  0.00    -0.206 F 
ATOM     10  C   UNL d   1     -32.527  20.641  24.693  0.00  0.00     0.057 A 
ATOM     11  C   UNL d   1     -31.274  21.099  24.273  0.00  0.00     0.010 A 
ATOM     12  C   UNL d   1     -31.112  21.837  23.019  0.00  0.00     0.033 A 
ENDROOT
BRANCH   3  13
ATOM     13  C   UNL d   1     -27.402  22.401  23.173  0.00  0.00    -0.007 A 
ATOM     14  C   UNL d   1     -26.821  23.488  23.829  0.00  0.00     0.014 A 
ATOM     15  C   UNL d   1     -25.553  23.901  23.487  0.00  0.00     0.013 A 
ATOM     16  C   UNL d   1     -24.852  23.241  22.478  0.00  0.00    -0.023 A 
ATOM     17  C   UNL d   1     -25.431  22.154  21.823  0.00  0.00     0.013 A 
ATOM     18  C   UNL d   1     -26.697  21.736  22.169  0.00  0.00     0.014 A 
BRANCH  16  19
ATOM     19  C   UNL d   1     -23.489  23.689  22.107  0.00  0.00     0.013 A 
ATOM     20  C   UNL d   1     -22.442  23.582  23.024  0.00  0.00     0.127 A 
ATOM     21  C   UNL d   1     -21.174  24.008  22.673  0.00  0.00     0.043 A 
ATOM     22  F   UNL d   1     -22.669  23.070  24.254  0.00  0.00    -0.205 F 
ATOM     23  C   UNL d   1     -20.941  24.527  21.413  0.00  0.00     0.003 A 
ATOM     24  C   UNL d   1     -21.976  24.634  20.501  0.00  0.00     0.001 A 
ATOM     25  C   UNL d   1     -23.246  24.219  20.840  0.00  0.00     0.015 A 
ENDBRANCH  16  19
ENDBRANCH   3  13
BRANCH  12  26
ATOM     26  C   UNL d   1     -32.269  22.128  22.144  0.00  0.00     0.171 A 
ATOM     27  N   UNL d   1     -33.445  22.767  22.513  0.00  0.00    -0.283 N 
ATOM     28  C   UNL d   1     -34.182  22.797  21.377  0.00  0.00     0.390 A 
ATOM     29  H   UNL d   1     -33.685  23.112  23.387  0.00  0.00     0.172 HD
ATOM     30  O   UNL d   1     -33.440  22.201  20.431  0.00  0.00    -0.153 OA
ATOM     31  O   UNL d   1     -35.294  23.269  21.241  0.00  0.00    -0.236 OA
ATOM     32  N   UNL d   1     -32.374  21.841  20.881  0.00  0.00    -0.104 NA
ENDBRANCH  12  26
TORSDOF 3
ENDMDL
