MODEL 1
REMARK VINA RESULT:      -9.8      0.000      0.000
REMARK  9 active torsions:
REMARK  status: ('A' for Active; 'I' for Inactive)
REMARK    1  A    between atoms: C_2  and  C_3 
REMARK    2  A    between atoms: C_3  and  C_4 
REMARK    3  A    between atoms: C_4  and  O_6 
REMARK    4  A    between atoms: O_6  and  C_7 
REMARK    5  A    between atoms: C_9  and  N_10 
REMARK    6  A    between atoms: C_12  and  C_13 
REMARK    7  A    between atoms: C_13  and  O_15 
REMARK    8  A    between atoms: C_23  and  C_24 
REMARK       I    between atoms: C_24  and  N_26 
REMARK    9  A    between atoms: N_26  and  C_27 
ROOT
ATOM      1  C   UNL d   1     -26.369  23.117  23.244  0.00  0.00     0.087 A 
ATOM      2  C   UNL d   1     -27.728  22.960  23.456  0.00  0.00     0.073 A 
ATOM      3  C   UNL d   1     -28.476  22.161  22.603  0.00  0.00     0.104 A 
ATOM      4  C   UNL d   1     -27.864  21.510  21.532  0.00  0.00     0.146 A 
ATOM      5  F   UNL d   1     -28.598  20.730  20.709  0.00  0.00    -0.204 F 
ATOM      6  C   UNL d   1     -26.514  21.664  21.308  0.00  0.00     0.064 A 
ATOM      7  C   UNL d   1     -25.752  22.468  22.165  0.00  0.00     0.068 A 
ENDROOT
BRANCH   7   8
ATOM      8  C   UNL d   1     -24.307  22.630  21.933  0.00  0.00     0.259 C 
ATOM      9  O   UNL d   1     -23.621  21.661  21.666  0.00  0.00    -0.267 OA
ATOM     10  N   UNL d   1     -23.743  23.851  22.015  0.00  0.00    -0.319 N 
ATOM     11  H   UNL d   1     -24.280  24.617  22.273  0.00  0.00     0.169 HD
BRANCH  10  12
ATOM     12  C   UNL d   1     -22.383  24.017  21.729  0.00  0.00     0.096 A 
ATOM     13  C   UNL d   1     -21.428  23.727  22.693  0.00  0.00     0.064 A 
ATOM     14  C   UNL d   1     -20.084  23.886  22.404  0.00  0.00     0.026 A 
ATOM     15 CL   UNL d   1     -21.918  23.159  24.259  0.00  0.00    -0.082 Cl
ATOM     16  C   UNL d   1     -19.692  24.343  21.161  0.00  0.00     0.005 A 
ATOM     17  C   UNL d   1     -20.640  24.639  20.198  0.00  0.00     0.045 A 
ATOM     18  C   UNL d   1     -21.985  24.477  20.477  0.00  0.00     0.144 A 
ATOM     19  F   UNL d   1     -22.911  24.765  19.537  0.00  0.00    -0.204 F 
ENDBRANCH  10  12
ENDBRANCH   7   8
BRANCH   1  20
ATOM     20  O   UNL d   1     -25.635  23.896  24.078  0.00  0.00    -0.345 OA
BRANCH  20  21
ATOM     21  C   UNL d   1     -25.982  25.282  24.142  0.00  0.00     0.124 C 
ATOM     22  C   UNL d   1     -26.314  25.658  25.588  0.00  0.00     0.040 C 
BRANCH  21  23
ATOM     23  C   UNL d   1     -24.803  26.126  23.654  0.00  0.00     0.032 C 
BRANCH  23  24
ATOM     24  C   UNL d   1     -23.721  26.163  24.736  0.00  0.00    -0.002 C 
ATOM     25  C   UNL d   1     -22.500  26.922  24.209  0.00  0.00     0.005 C 
ENDBRANCH  23  24
ENDBRANCH  21  23
ENDBRANCH  20  21
ENDBRANCH   1  20
BRANCH   3  26
ATOM     26  N   UNL d   1     -29.847  22.004  22.820  0.00  0.00    -0.178 N 
ATOM     27  C   UNL d   1     -30.439  21.669  23.986  0.00  0.00     0.351 A 
ATOM     28  N   UNL d   1     -31.768  21.622  23.764  0.00  0.00    -0.286 N 
ATOM     29  O   UNL d   1     -29.876  21.451  25.044  0.00  0.00    -0.244 OA
ATOM     30  C   UNL d   1     -31.997  21.932  22.446  0.00  0.00     0.159 A 
ATOM     31  C   UNL d   1     -32.793  21.298  24.760  0.00  0.00     0.163 C 
ATOM     32  N   UNL d   1     -30.862  22.157  21.866  0.00  0.00    -0.146 NA
BRANCH  30  33
ATOM     33  C   UNL d   1     -33.349  21.993  21.781  0.00  0.00     0.185 C 
ATOM     34  C   UNL d   1     -34.039  20.633  21.903  0.00  0.00     0.048 C 
BRANCH  33  35
ATOM     35  O   UNL d   1     -33.186  22.321  20.399  0.00  0.00    -0.388 OA
ATOM     36  H   UNL d   1     -33.343  21.580  19.798  0.00  0.00     0.210 HD
ENDBRANCH  33  35
ENDBRANCH  30  33
ENDBRANCH   3  26
TORSDOF 9
ENDMDL
