MODEL 1
REMARK VINA RESULT:     -10.3      0.000      0.000
REMARK  8 active torsions:
REMARK  status: ('A' for Active; 'I' for Inactive)
REMARK    1  A    between atoms: C_2  and  C_3 
REMARK    2  A    between atoms: C_3  and  O_4 
REMARK    3  A    between atoms: O_4  and  C_5 
REMARK    4  A    between atoms: C_5  and  C_7 
REMARK    5  A    between atoms: C_12  and  C_13 
REMARK    6  A    between atoms: N_14  and  N_15 
REMARK    7  A    between atoms: N_15  and  C_17 
REMARK    8  A    between atoms: C_19  and  C_20 
ROOT
ATOM      1  C   UNL d   1     -29.474  22.154  23.808  0.00  0.00     0.151 C 
ATOM      2  N   UNL d   1     -28.501  22.702  23.142  0.00  0.00    -0.182 NA
ENDROOT
BRANCH   2   3
ATOM      3  N   UNL d   1     -27.259  22.909  23.759  0.00  0.00    -0.251 N 
ATOM      4  C   UNL d   1     -27.198  23.301  25.168  0.00  0.00     0.182 C 
BRANCH   3   5
ATOM      5  C   UNL d   1     -26.091  22.742  23.035  0.00  0.00     0.189 A 
ATOM      6  S   UNL d   1     -25.891  21.658  21.661  0.00  0.00    -0.060 SA
ATOM      7  C   UNL d   1     -24.212  22.170  21.501  0.00  0.00     0.086 A 
ATOM      8  C   UNL d   1     -23.954  23.074  22.463  0.00  0.00     0.078 A 
ATOM      9  N   UNL d   1     -24.972  23.360  23.262  0.00  0.00    -0.222 NA
BRANCH   8  10
ATOM     10  C   UNL d   1     -22.623  23.711  22.616  0.00  0.00     0.015 A 
ATOM     11  C   UNL d   1     -22.098  24.492  21.586  0.00  0.00     0.046 A 
ATOM     12  C   UNL d   1     -20.859  25.083  21.735  0.00  0.00     0.025 A 
ATOM     13 CL   UNL d   1     -23.002  24.722  20.121  0.00  0.00    -0.083 Cl
ATOM     14  C   UNL d   1     -20.139  24.901  22.902  0.00  0.00     0.002 A 
ATOM     15  C   UNL d   1     -20.656  24.127  23.926  0.00  0.00     0.001 A 
ATOM     16  C   UNL d   1     -21.893  23.533  23.789  0.00  0.00     0.015 A 
ENDBRANCH   8  10
ENDBRANCH   3   5
ENDBRANCH   2   3
BRANCH   1  17
ATOM     17  C   UNL d   1     -30.807  22.035  23.198  0.00  0.00    -0.001 A 
ATOM     18  C   UNL d   1     -31.930  21.736  23.997  0.00  0.00     0.051 A 
ATOM     19  C   UNL d   1     -33.189  21.633  23.403  0.00  0.00     0.018 A 
ATOM     20  C   UNL d   1     -33.326  21.810  22.043  0.00  0.00     0.001 A 
ATOM     21  C   UNL d   1     -32.221  22.097  21.256  0.00  0.00     0.001 A 
ATOM     22  C   UNL d   1     -30.969  22.211  21.822  0.00  0.00     0.014 A 
BRANCH  18  23
ATOM     23  C   UNL d   1     -31.777  21.542  25.450  0.00  0.00     0.294 C 
ATOM     24  O   UNL d   1     -31.458  22.476  26.157  0.00  0.00    -0.259 OA
BRANCH  23  25
ATOM     25  O   UNL d   1     -31.991  20.327  25.993  0.00  0.00    -0.317 OA
BRANCH  25  26
ATOM     26  C   UNL d   1     -30.831  19.623  26.511  0.00  0.00     0.178 C 
BRANCH  26  27
ATOM     27  C   UNL d   1     -31.096  18.117  26.489  0.00  0.00     0.022 C 
ATOM     28  C   UNL d   1     -32.604  17.863  26.454  0.00  0.00     0.007 C 
ENDBRANCH  26  27
ENDBRANCH  25  26
ENDBRANCH  23  25
ENDBRANCH  18  23
ENDBRANCH   1  17
TORSDOF 8
ENDMDL
