MODEL 1
REMARK VINA RESULT:      -9.6      0.000      0.000
REMARK  7 active torsions:
REMARK  status: ('A' for Active; 'I' for Inactive)
REMARK    1  A    between atoms: C_2  and  N_3 
REMARK    2  A    between atoms: C_4  and  C_5 
REMARK    3  A    between atoms: C_5  and  O_6 
REMARK    4  A    between atoms: N_8  and  C_9 
REMARK    5  A    between atoms: C_12  and  C_13 
REMARK    6  A    between atoms: C_13  and  C_15 
REMARK    7  A    between atoms: N_20  and  C_21 
ROOT
ATOM      1  C   UNL d   1     -28.940  22.118  21.990  0.00  0.00     0.195 A 
ATOM      2  N   UNL d   1     -28.271  22.854  22.862  0.00  0.00    -0.225 NA
ATOM      3  C   UNL d   1     -26.955  23.004  22.767  0.00  0.00     0.083 A 
ATOM      4  C   UNL d   1     -26.201  23.821  23.720  0.00  0.00     0.000 A 
ATOM      5  C   UNL d   1     -24.872  23.947  23.577  0.00  0.00     0.111 A 
ATOM      6  N   UNL d   1     -24.183  23.341  22.564  0.00  0.00    -0.288 N 
ATOM      7  C   UNL d   1     -24.794  22.576  21.639  0.00  0.00     0.264 A 
ATOM      8  O   UNL d   1     -24.148  22.051  20.749  0.00  0.00    -0.267 OA
ATOM      9  C   UNL d   1     -26.244  22.381  21.714  0.00  0.00     0.065 A 
ATOM     10  C   UNL d   1     -26.937  21.600  20.785  0.00  0.00     0.066 A 
ATOM     11  C   UNL d   1     -28.294  21.473  20.932  0.00  0.00     0.165 A 
ATOM     12  F   UNL d   1     -29.005  20.726  20.058  0.00  0.00    -0.202 F 
ENDROOT
BRANCH   1  13
ATOM     13  N   UNL d   1     -30.320  21.983  22.130  0.00  0.00    -0.159 N 
ATOM     14  N   UNL d   1     -31.271  22.074  21.105  0.00  0.00    -0.145 NA
ATOM     15  C   UNL d   1     -32.441  21.888  21.626  0.00  0.00     0.154 A 
ATOM     16  N   UNL d   1     -32.300  21.684  22.976  0.00  0.00    -0.283 N 
ATOM     17  C   UNL d   1     -30.987  21.744  23.278  0.00  0.00     0.352 A 
ATOM     18  O   UNL d   1     -30.494  21.607  24.384  0.00  0.00    -0.244 OA
BRANCH  15  19
ATOM     19  C   UNL d   1     -33.748  21.900  20.874  0.00  0.00     0.244 C 
BRANCH  19  20
ATOM     20  O   UNL d   1     -34.568  22.964  21.362  0.00  0.00    -0.393 OA
ATOM     21  H   UNL d   1     -34.915  23.543  20.670  0.00  0.00     0.209 HD
ENDBRANCH  19  20
ENDBRANCH  15  19
BRANCH  16  22
ATOM     22  C   UNL d   1     -33.387  21.444  23.927  0.00  0.00     0.131 C 
ATOM     23  C   UNL d   1     -33.453  19.953  24.262  0.00  0.00     0.027 C 
ENDBRANCH  16  22
ENDBRANCH   1  13
BRANCH   4  24
ATOM     24  C   UNL d   1     -26.912  24.510  24.857  0.00  0.00     0.126 C 
ATOM     25  C   UNL d   1     -26.069  25.691  25.343  0.00  0.00     0.024 C 
BRANCH  24  26
ATOM     26  C   UNL d   1     -27.115  23.521  26.005  0.00  0.00     0.395 C 
ATOM     27  F   UNL d   1     -28.257  22.751  25.761  0.00  0.00    -0.170 F 
ATOM     28  F   UNL d   1     -27.273  24.224  27.204  0.00  0.00    -0.170 F 
ATOM     29  F   UNL d   1     -25.999  22.682  26.100  0.00  0.00    -0.170 F 
ENDBRANCH  24  26
ENDBRANCH   4  24
BRANCH   6  30
ATOM     30  C   UNL d   1     -22.797  23.523  22.486  0.00  0.00     0.048 A 
ATOM     31  C   UNL d   1     -22.253  24.295  21.468  0.00  0.00    -0.035 A 
ATOM     32  C   UNL d   1     -20.885  24.475  21.396  0.00  0.00     0.009 A 
ATOM     33  C   UNL d   1     -23.154  24.939  20.446  0.00  0.00     0.050 C 
ATOM     34  C   UNL d   1     -20.058  23.880  22.330  0.00  0.00     0.001 A 
ATOM     35  C   UNL d   1     -20.597  23.106  23.342  0.00  0.00     0.002 A 
ATOM     36  C   UNL d   1     -21.963  22.926  23.422  0.00  0.00     0.030 A 
ENDBRANCH   6  30
TORSDOF 7
ENDMDL
