MODEL 1
REMARK VINA RESULT:     -12.5      0.000      0.000
REMARK  4 active torsions:
REMARK  status: ('A' for Active; 'I' for Inactive)
REMARK    1  A    between atoms: C_4  and  C_5 
REMARK       I    between atoms: C_5  and  N_6 
REMARK    2  A    between atoms: C_10  and  C_11 
REMARK    3  A    between atoms: C_14  and  C_15 
REMARK    4  A    between atoms: C_19  and  C_20 
REMARK       I    between atoms: C_20  and  N_22 
ROOT
ATOM      1  C   UNL d   1     -27.418  22.502  23.229  0.00  0.00     0.010 A 
ATOM      2  C   UNL d   1     -26.691  21.891  22.205  0.00  0.00     0.016 A 
ATOM      3  C   UNL d   1     -25.405  22.301  21.934  0.00  0.00     0.013 A 
ATOM      4  C   UNL d   1     -24.825  23.321  22.688  0.00  0.00    -0.025 A 
ATOM      5  C   UNL d   1     -25.547  23.929  23.714  0.00  0.00     0.013 A 
ATOM      6  C   UNL d   1     -26.835  23.522  23.984  0.00  0.00     0.016 A 
ENDROOT
BRANCH   1   7
ATOM      7  C   UNL d   1     -28.799  22.065  23.518  0.00  0.00     0.139 A 
ATOM      8  N   UNL d   1     -29.818  22.190  22.700  0.00  0.00    -0.227 NA
ATOM      9  C   UNL d   1     -30.927  21.692  23.275  0.00  0.00     0.101 A 
ATOM     10  C   UNL d   1     -32.269  21.573  22.852  0.00  0.00     0.063 A 
ATOM     11  C   UNL d   1     -30.564  21.222  24.549  0.00  0.00     0.064 A 
ATOM     12  C   UNL d   1     -33.208  20.999  23.705  0.00  0.00     0.026 A 
ATOM     13  C   UNL d   1     -32.829  20.537  24.952  0.00  0.00    -0.059 A 
ATOM     14  C   UNL d   1     -33.856  19.912  25.860  0.00  0.00     0.048 C 
ATOM     15  C   UNL d   1     -31.519  20.649  25.377  0.00  0.00     0.038 A 
ATOM     16  N   UNL d   1     -29.210  21.471  24.679  0.00  0.00    -0.338 N 
ATOM     17  H   UNL d   1     -28.657  21.262  25.448  0.00  0.00     0.167 HD
BRANCH  10  18
ATOM     18  C   UNL d   1     -32.674  22.058  21.520  0.00  0.00     0.251 C 
ATOM     19  N   UNL d   1     -31.777  22.101  20.516  0.00  0.00    -0.366 N 
ATOM     20  H   UNL d   1     -32.043  22.421  19.641  0.00  0.00     0.159 HD
ATOM     21  H   UNL d   1     -30.862  21.816  20.670  0.00  0.00     0.159 HD
ATOM     22  O   UNL d   1     -33.819  22.420  21.328  0.00  0.00    -0.268 OA
ENDBRANCH  10  18
ENDBRANCH   1   7
BRANCH   4  23
ATOM     23  C   UNL d   1     -23.438  23.759  22.398  0.00  0.00    -0.007 A 
ATOM     24  C   UNL d   1     -22.591  24.158  23.432  0.00  0.00     0.032 A 
ATOM     25  C   UNL d   1     -21.291  24.558  23.105  0.00  0.00     0.050 A 
ATOM     26  C   UNL d   1     -20.898  24.550  21.766  0.00  0.00     0.133 A 
ATOM     27  N   UNL d   1     -21.732  24.170  20.819  0.00  0.00    -0.271 NA
ATOM     28  C   UNL d   1     -22.963  23.782  21.087  0.00  0.00     0.128 A 
BRANCH  25  29
ATOM     29  C   UNL d   1     -20.349  24.985  24.161  0.00  0.00     0.255 C 
ATOM     30  O   UNL d   1     -19.407  24.277  24.458  0.00  0.00    -0.267 OA
ATOM     31  N   UNL d   1     -20.534  26.161  24.794  0.00  0.00    -0.348 N 
ATOM     32  C   UNL d   1     -19.614  26.763  25.770  0.00  0.00     0.126 C 
ATOM     33  C   UNL d   1     -21.690  27.058  24.619  0.00  0.00     0.126 C 
ATOM     34  C   UNL d   1     -20.251  28.086  26.244  0.00  0.00     0.021 C 
ATOM     35  C   UNL d   1     -21.757  27.878  25.934  0.00  0.00     0.021 C 
ENDBRANCH  25  29
ENDBRANCH   4  23
TORSDOF 4
ENDMDL
