MODEL 1
REMARK VINA RESULT:      -9.4      0.000      0.000
REMARK  13 active torsions:
REMARK  status: ('A' for Active; 'I' for Inactive)
REMARK    1  A    between atoms: C_2  and  C_4 
REMARK    2  A    between atoms: C_4  and  O_5 
REMARK    3  A    between atoms: C_4  and  C_6 
REMARK    4  A    between atoms: C_6  and  C_7 
REMARK    5  A    between atoms: C_7  and  C_8 
REMARK    6  A    between atoms: C_10  and  C_11 
REMARK    7  A    between atoms: C_11  and  C_12 
REMARK    8  A    between atoms: C_12  and  C_13 
REMARK    9  A    between atoms: C_15  and  C_16 
REMARK   10  A    between atoms: C_16  and  C_17 
REMARK   11  A    between atoms: C_18  and  O_19 
REMARK   12  A    between atoms: C_24  and  C_25 
REMARK   13  A    between atoms: C_27  and  O_28 
ROOT
ATOM      1  C   UNL d   1     -24.228  22.680  20.948  0.00  0.00    -0.087 C 
ATOM      2  C   UNL d   1     -24.203  22.893  19.456  0.00  0.00     0.043 C 
ATOM      3  C   UNL d   1     -23.734  23.592  21.748  0.00  0.00    -0.020 C 
ENDROOT
BRANCH   3   4
ATOM      4  C   UNL d   1     -23.023  24.791  21.176  0.00  0.00     0.072 C 
BRANCH   4   5
ATOM      5  C   UNL d   1     -22.064  25.342  22.200  0.00  0.00     0.014 A 
ATOM      6  C   UNL d   1     -20.699  25.234  21.997  0.00  0.00     0.088 A 
ATOM      7  C   UNL d   1     -19.811  25.746  22.960  0.00  0.00     0.043 A 
ATOM      8  C   UNL d   1     -20.317  26.365  24.112  0.00  0.00    -0.021 A 
ATOM      9  C   UNL d   1     -21.666  26.468  24.295  0.00  0.00     0.074 A 
ATOM     10  C   UNL d   1     -19.372  26.917  25.148  0.00  0.00     0.051 C 
ATOM     11  C   UNL d   1     -22.547  25.963  23.342  0.00  0.00     0.097 A 
ATOM     12 CL   UNL d   1     -22.286  27.237  25.723  0.00  0.00    -0.081 Cl
BRANCH   6  13
ATOM     13  O   UNL d   1     -20.221  24.634  20.879  0.00  0.00    -0.359 OA
ATOM     14  H   UNL d   1     -19.255  24.607  20.831  0.00  0.00     0.217 HD
ENDBRANCH   6  13
BRANCH   7  15
ATOM     15  C   UNL d   1     -18.363  25.633  22.761  0.00  0.00     0.273 C 
ATOM     16  O   UNL d   1     -17.900  24.644  22.234  0.00  0.00    -0.301 OA
ENDBRANCH   7  15
BRANCH  11  17
ATOM     17  O   UNL d   1     -23.886  26.072  23.535  0.00  0.00    -0.358 OA
ATOM     18  H   UNL d   1     -24.154  26.037  24.464  0.00  0.00     0.217 HD
ENDBRANCH  11  17
ENDBRANCH   4   5
ENDBRANCH   3   4
BRANCH   1  19
ATOM     19  C   UNL d   1     -24.823  21.419  21.519  0.00  0.00     0.037 C 
BRANCH  19  20
ATOM     20  C   UNL d   1     -26.334  21.413  21.278  0.00  0.00     0.031 C 
BRANCH  20  21
ATOM     21  C   UNL d   1     -27.047  21.778  22.555  0.00  0.00    -0.024 C 
ATOM     22  C   UNL d   1     -28.297  22.168  22.518  0.00  0.00    -0.087 C 
ATOM     23  C   UNL d   1     -29.056  22.144  21.217  0.00  0.00     0.043 C 
BRANCH  22  24
ATOM     24  C   UNL d   1     -28.975  22.643  23.778  0.00  0.00     0.036 C 
BRANCH  24  25
ATOM     25  C   UNL d   1     -29.852  21.523  24.339  0.00  0.00     0.040 C 
BRANCH  25  26
ATOM     26  C   UNL d   1     -31.202  22.099  24.770  0.00  0.00     0.146 C 
BRANCH  26  27
ATOM     27  C   UNL d   1     -32.294  21.513  23.914  0.00  0.00    -0.065 C 
ATOM     28  C   UNL d   1     -32.516  21.992  22.714  0.00  0.00     0.016 C 
ATOM     29  C   UNL d   1     -33.133  20.375  24.437  0.00  0.00     0.045 C 
ENDBRANCH  26  27
BRANCH  26  30
ATOM     30  O   UNL d   1     -31.443  21.773  26.140  0.00  0.00    -0.391 OA
ATOM     31  H   UNL d   1     -31.632  20.837  26.294  0.00  0.00     0.210 HD
ENDBRANCH  26  30
ENDBRANCH  25  26
ENDBRANCH  24  25
ENDBRANCH  22  24
ENDBRANCH  20  21
ENDBRANCH  19  20
ENDBRANCH   1  19
TORSDOF 13
ENDMDL
