MODEL 1
REMARK VINA RESULT:      -9.1      0.000      0.000
REMARK  6 active torsions:
REMARK  status: ('A' for Active; 'I' for Inactive)
REMARK    1  A    between atoms: C_6  and  C_7 
REMARK    2  A    between atoms: C_11  and  C_12 
REMARK    3  A    between atoms: C_14  and  C_15 
REMARK    4  A    between atoms: C_20  and  C_21 
REMARK    5  A    between atoms: C_23  and  C_24 
REMARK    6  A    between atoms: C_24  and  O_27 
ROOT
ATOM      1  C   UNL d   1     -17.294  26.617  24.715  0.00  0.00     0.048 A 
ATOM      2  C   UNL d   1     -18.237  26.858  25.717  0.00  0.00     0.027 A 
ATOM      3  C   UNL d   1     -19.519  26.367  25.568  0.00  0.00    -0.026 A 
ATOM      4  C   UNL d   1     -19.854  25.640  24.422  0.00  0.00     0.050 A 
ATOM      5  C   UNL d   1     -21.159  25.143  24.275  0.00  0.00     0.049 A 
ATOM      6  C   UNL d   1     -21.484  24.423  23.138  0.00  0.00     0.056 A 
ATOM      7  C   UNL d   1     -20.491  24.202  22.154  0.00  0.00     0.146 A 
ATOM      8  F   UNL d   1     -20.790  23.498  21.041  0.00  0.00    -0.204 F 
ATOM      9  C   UNL d   1     -19.248  24.697  22.324  0.00  0.00     0.144 A 
ATOM     10  N   UNL d   1     -18.919  25.410  23.446  0.00  0.00    -0.285 N 
ATOM     11  C   UNL d   1     -17.662  25.883  23.579  0.00  0.00     0.263 A 
ATOM     12  O   UNL d   1     -16.839  25.671  22.701  0.00  0.00    -0.267 OA
ENDROOT
BRANCH   1  13
ATOM     13  C   UNL d   1     -15.911  27.134  24.852  0.00  0.00     0.039 A 
ATOM     14  C   UNL d   1     -15.402  28.315  24.276  0.00  0.00     0.064 A 
ATOM     15  C   UNL d   1     -16.170  29.278  23.409  0.00  0.00     0.073 C 
ATOM     16  N   UNL d   1     -14.147  28.430  24.625  0.00  0.00    -0.179 NA
ATOM     17  N   UNL d   1     -13.807  27.336  25.431  0.00  0.00    -0.273 N 
ATOM     18  H   UNL d   1     -12.938  27.170  25.827  0.00  0.00     0.189 HD
ATOM     19  C   UNL d   1     -14.900  26.555  25.564  0.00  0.00     0.147 A 
BRANCH  19  20
ATOM     20  C   UNL d   1     -14.988  25.273  26.353  0.00  0.00     0.434 C 
ATOM     21  F   UNL d   1     -15.388  24.233  25.507  0.00  0.00    -0.165 F 
ATOM     22  F   UNL d   1     -13.735  24.975  26.898  0.00  0.00    -0.165 F 
ATOM     23  F   UNL d   1     -15.922  25.423  27.383  0.00  0.00    -0.165 F 
ENDBRANCH  19  20
ENDBRANCH   1  13
BRANCH   3  24
ATOM     24  C   UNL d   1     -20.552  26.613  26.637  0.00  0.00     0.013 C 
ATOM     25  C   UNL d   1     -19.903  26.479  28.016  0.00  0.00     0.015 C 
ATOM     26  C   UNL d   1     -21.124  28.023  26.478  0.00  0.00     0.015 C 
ENDBRANCH   3  24
BRANCH   6  27
ATOM     27  C   UNL d   1     -22.853  23.887  22.956  0.00  0.00     0.184 A 
ATOM     28  N   UNL d   1     -23.903  24.197  23.688  0.00  0.00    -0.150 NA
ATOM     29  N   UNL d   1     -24.986  23.469  23.168  0.00  0.00    -0.256 N 
ATOM     30  C   UNL d   1     -24.504  22.748  22.139  0.00  0.00     0.158 A 
ATOM     31  C   UNL d   1     -26.368  23.490  23.653  0.00  0.00     0.181 C 
ATOM     32  N   UNL d   1     -23.229  23.007  22.017  0.00  0.00    -0.208 NA
BRANCH  30  33
ATOM     33  C   UNL d   1     -25.301  21.808  21.270  0.00  0.00     0.112 C 
ATOM     34  C   UNL d   1     -25.160  22.225  19.805  0.00  0.00     0.054 C 
ATOM     35  C   UNL d   1     -26.774  21.864  21.677  0.00  0.00     0.054 C 
BRANCH  33  36
ATOM     36  O   UNL d   1     -24.811  20.476  21.435  0.00  0.00    -0.383 OA
ATOM     37  H   UNL d   1     -25.126  19.855  20.766  0.00  0.00     0.211 HD
ENDBRANCH  33  36
ENDBRANCH  30  33
ENDBRANCH   6  27
TORSDOF 6
ENDMDL
