MODEL 1
REMARK VINA RESULT:     -10.4      0.000      0.000
REMARK  5 active torsions:
REMARK  status: ('A' for Active; 'I' for Inactive)
REMARK    1  A    between atoms: C_7  and  C_8 
REMARK    2  A    between atoms: C_16  and  C_17 
REMARK    3  A    between atoms: C_17  and  O_18 
REMARK    4  A    between atoms: O_18  and  C_19 
REMARK    5  A    between atoms: C_19  and  C_20 
ROOT
ATOM      1  C   UNL d   1     -30.823  20.799  26.312  0.00  0.00     0.048 C 
ATOM      2  C   UNL d   1     -29.536  21.458  25.890  0.00  0.00    -0.061 A 
ATOM      3  C   UNL d   1     -28.655  21.930  26.862  0.00  0.00     0.009 A 
ATOM      4  C   UNL d   1     -27.484  22.529  26.515  0.00  0.00     0.033 A 
ATOM      5  C   UNL d   1     -27.151  22.678  25.157  0.00  0.00     0.068 A 
ATOM      6  N   UNL d   1     -26.007  23.263  24.791  0.00  0.00    -0.248 NA
ATOM      7  C   UNL d   1     -25.689  23.405  23.518  0.00  0.00     0.068 A 
ATOM      8  C   UNL d   1     -26.536  22.950  22.495  0.00  0.00     0.042 A 
ATOM      9  C   UNL d   1     -27.716  22.346  22.810  0.00  0.00    -0.020 A 
ATOM     10  C   UNL d   1     -28.048  22.198  24.171  0.00  0.00     0.002 A 
ATOM     11  C   UNL d   1     -29.247  21.585  24.566  0.00  0.00     0.021 A 
ENDROOT
BRANCH   9  12
ATOM     12  C   UNL d   1     -28.643  21.850  21.730  0.00  0.00     0.207 C 
BRANCH  12  13
ATOM     13  O   UNL d   1     -29.729  22.767  21.576  0.00  0.00    -0.382 OA
BRANCH  13  14
ATOM     14  C   UNL d   1     -30.780  22.286  20.734  0.00  0.00     0.206 C 
BRANCH  14  15
ATOM     15  C   UNL d   1     -31.947  21.855  21.585  0.00  0.00    -0.035 A 
ATOM     16  C   UNL d   1     -32.017  22.243  22.909  0.00  0.00     0.009 A 
ATOM     17  C   UNL d   1     -33.087  21.848  23.689  0.00  0.00     0.001 A 
ATOM     18  C   UNL d   1     -34.087  21.064  23.145  0.00  0.00     0.000 A 
ATOM     19  C   UNL d   1     -34.017  20.676  21.820  0.00  0.00     0.001 A 
ATOM     20  C   UNL d   1     -32.949  21.075  21.039  0.00  0.00     0.009 A 
ENDBRANCH  14  15
ENDBRANCH  13  14
ENDBRANCH  12  13
ENDBRANCH   9  12
BRANCH   7  21
ATOM     21  C   UNL d   1     -24.408  24.060  23.161  0.00  0.00    -0.007 A 
ATOM     22  C   UNL d   1     -23.389  23.322  22.559  0.00  0.00     0.017 A 
ATOM     23  C   UNL d   1     -22.199  23.936  22.229  0.00  0.00     0.043 A 
ATOM     24  C   UNL d   1     -22.015  25.284  22.492  0.00  0.00     0.116 A 
ATOM     25  C   UNL d   1     -23.026  26.022  23.090  0.00  0.00     0.043 A 
ATOM     26  F   UNL d   1     -20.848  25.881  22.167  0.00  0.00    -0.206 F 
ATOM     27  C   UNL d   1     -24.221  25.417  23.419  0.00  0.00     0.017 A 
ENDBRANCH   7  21
TORSDOF 5
ENDMDL
