MODEL 1
REMARK VINA RESULT:     -11.0      0.000      0.000
REMARK  6 active torsions:
REMARK  status: ('A' for Active; 'I' for Inactive)
REMARK    1  A    between atoms: C_8  and  N_9 
REMARK       I    between atoms: N_9  and  C_10 
REMARK    2  A    between atoms: C_10  and  C_12 
REMARK    3  A    between atoms: C_16  and  N_17 
REMARK    4  A    between atoms: C_28  and  O_29 
REMARK    5  A    between atoms: O_29  and  C_30 
REMARK    6  A    between atoms: C_30  and  C_32 
ROOT
ATOM      1  C   UNL d   1     -24.288  24.438  23.444  0.00  0.00     0.068 A 
ATOM      2  C   UNL d   1     -25.157  24.958  24.411  0.00  0.00     0.064 A 
ATOM      3  C   UNL d   1     -26.407  24.408  24.577  0.00  0.00     0.146 A 
ATOM      4  F   UNL d   1     -27.245  24.911  25.510  0.00  0.00    -0.204 F 
ATOM      5  C   UNL d   1     -26.813  23.333  23.786  0.00  0.00     0.104 A 
ATOM      6  C   UNL d   1     -25.955  22.808  22.829  0.00  0.00     0.073 A 
ATOM      7  C   UNL d   1     -24.697  23.357  22.649  0.00  0.00     0.087 A 
ENDROOT
BRANCH   1   8
ATOM      8  C   UNL d   1     -22.949  25.023  23.263  0.00  0.00     0.259 C 
ATOM      9  N   UNL d   1     -21.881  24.460  23.861  0.00  0.00    -0.322 N 
ATOM     10  H   UNL d   1     -22.003  23.720  24.476  0.00  0.00     0.169 HD
ATOM     11  O   UNL d   1     -22.807  26.015  22.572  0.00  0.00    -0.267 OA
BRANCH   9  12
ATOM     12  C   UNL d   1     -20.596  24.943  23.596  0.00  0.00     0.043 A 
ATOM     13  C   UNL d   1     -20.029  25.902  24.426  0.00  0.00     0.003 A 
ATOM     14  C   UNL d   1     -20.796  26.423  25.613  0.00  0.00     0.054 C 
ATOM     15  C   UNL d   1     -18.754  26.373  24.163  0.00  0.00     0.124 A 
ATOM     16  F   UNL d   1     -18.199  27.302  24.972  0.00  0.00    -0.205 F 
ATOM     17  C   UNL d   1     -18.051  25.899  23.069  0.00  0.00     0.043 A 
ATOM     18  C   UNL d   1     -18.617  24.948  22.240  0.00  0.00     0.005 A 
ATOM     19  C   UNL d   1     -19.886  24.469  22.500  0.00  0.00     0.030 A 
ENDBRANCH   9  12
ENDBRANCH   1   8
BRANCH   7  20
ATOM     20  O   UNL d   1     -23.860  22.847  21.710  0.00  0.00    -0.336 OA
BRANCH  20  21
ATOM     21  C   UNL d   1     -23.955  23.392  20.392  0.00  0.00     0.232 C 
ATOM     22  C   UNL d   1     -22.566  23.814  19.912  0.00  0.00     0.049 C 
BRANCH  21  23
ATOM     23  C   UNL d   1     -24.524  22.334  19.444  0.00  0.00     0.413 C 
ATOM     24  F   UNL d   1     -23.679  21.219  19.429  0.00  0.00    -0.168 F 
ATOM     25  F   UNL d   1     -25.795  21.950  19.880  0.00  0.00    -0.168 F 
ATOM     26  F   UNL d   1     -24.615  22.867  18.153  0.00  0.00    -0.168 F 
ENDBRANCH  21  23
ENDBRANCH  20  21
ENDBRANCH   7  20
BRANCH   5  27
ATOM     27  N   UNL d   1     -28.083  22.780  23.961  0.00  0.00    -0.178 N 
ATOM     28  C   UNL d   1     -28.484  22.008  24.995  0.00  0.00     0.351 A 
ATOM     29  N   UNL d   1     -29.779  21.712  24.795  0.00  0.00    -0.284 N 
ATOM     30  O   UNL d   1     -27.798  21.648  25.934  0.00  0.00    -0.244 OA
ATOM     31  C   UNL d   1     -30.173  22.274  23.599  0.00  0.00     0.131 A 
ATOM     32  C   UNL d   1     -30.665  20.945  25.677  0.00  0.00     0.135 C 
ATOM     33  N   UNL d   1     -29.177  22.919  23.094  0.00  0.00    -0.149 NA
ATOM     34  C   UNL d   1     -31.560  22.124  23.017  0.00  0.00     0.081 C 
ATOM     35  C   UNL d   1     -32.500  21.675  24.143  0.00  0.00     0.009 C 
ATOM     36  C   UNL d   1     -31.878  20.476  24.865  0.00  0.00     0.021 C 
ENDBRANCH   5  27
TORSDOF 6
ENDMDL
