MODEL 1
REMARK VINA RESULT:      -9.7      0.000      0.000
REMARK  3 active torsions:
REMARK  status: ('A' for Active; 'I' for Inactive)
REMARK    1  A    between atoms: C_2  and  O_3 
REMARK    2  A    between atoms: C_2  and  C_4 
REMARK    3  A    between atoms: C_6  and  C_7 
ROOT
ATOM      1  C   UNL d   1     -30.368  21.520  24.435  0.00  0.00     0.052 A 
ATOM      2  C   UNL d   1     -29.023  21.690  24.138  0.00  0.00     0.051 A 
ATOM      3  C   UNL d   1     -28.642  22.003  22.824  0.00  0.00     0.068 A 
ATOM      4  N   UNL d   1     -29.519  22.156  21.854  0.00  0.00    -0.247 NA
ATOM      5  C   UNL d   1     -30.831  22.018  22.052  0.00  0.00     0.068 A 
ATOM      6  C   UNL d   1     -31.745  22.186  20.995  0.00  0.00     0.032 A 
ATOM      7  C   UNL d   1     -33.078  22.038  21.227  0.00  0.00     0.002 A 
ATOM      8  C   UNL d   1     -33.557  21.720  22.496  0.00  0.00     0.001 A 
ATOM      9  C   UNL d   1     -32.700  21.549  23.544  0.00  0.00     0.015 A 
ATOM     10  C   UNL d   1     -31.324  21.695  23.341  0.00  0.00     0.010 A 
ENDROOT
BRANCH   3  11
ATOM     11  C   UNL d   1     -27.200  22.175  22.518  0.00  0.00    -0.007 A 
ATOM     12  C   UNL d   1     -26.404  22.980  23.330  0.00  0.00     0.014 A 
ATOM     13  C   UNL d   1     -25.064  23.136  23.040  0.00  0.00     0.001 A 
ATOM     14  C   UNL d   1     -24.510  22.492  21.947  0.00  0.00     0.000 A 
ATOM     15  C   UNL d   1     -25.296  21.692  21.138  0.00  0.00     0.001 A 
ATOM     16  C   UNL d   1     -26.637  21.525  21.421  0.00  0.00     0.014 A 
ENDBRANCH   3  11
BRANCH   1  17
ATOM     17  C   UNL d   1     -30.817  21.183  25.802  0.00  0.00     0.177 C 
ATOM     18  O   UNL d   1     -31.462  21.986  26.444  0.00  0.00    -0.646 OA
BRANCH  17  19
ATOM     19  O   UNL d   1     -30.508  19.986  26.336  0.00  0.00    -0.773 OA
ATOM     20  H   UNL d   1     -29.773  19.502  25.935  0.00  0.00     0.167 HD
ENDBRANCH  17  19
ENDBRANCH   1  17
TORSDOF 3
ENDMDL
