MODEL 1
REMARK VINA RESULT:      -9.8      0.000      0.000
REMARK  3 active torsions:
REMARK  status: ('A' for Active; 'I' for Inactive)
REMARK    1  A    between atoms: C_3  and  O_4 
REMARK    2  A    between atoms: C_5  and  N_6 
REMARK    3  A    between atoms: N_6  and  C_7 
ROOT
ATOM      1  O   UNL d   1     -30.493  20.211  26.746  0.00  0.00    -0.284 OA
ATOM      2  C   UNL d   1     -30.592  20.835  25.707  0.00  0.00     0.218 A 
ATOM      3  C   UNL d   1     -29.453  21.612  25.203  0.00  0.00     0.148 A 
ATOM      4  C   UNL d   1     -29.549  22.319  24.049  0.00  0.00     0.122 A 
ATOM      5  C   UNL d   1     -30.801  22.313  23.265  0.00  0.00     0.212 A 
ATOM      6  O   UNL d   1     -30.875  22.945  22.230  0.00  0.00    -0.285 OA
ATOM      7  C   UNL d   1     -31.963  21.535  23.745  0.00  0.00     0.031 A 
ATOM      8  C   UNL d   1     -33.151  21.514  23.026  0.00  0.00     0.016 A 
ATOM      9  C   UNL d   1     -34.228  20.777  23.494  0.00  0.00     0.001 A 
ATOM     10  C   UNL d   1     -34.128  20.064  24.673  0.00  0.00     0.001 A 
ATOM     11  C   UNL d   1     -32.949  20.075  25.402  0.00  0.00     0.016 A 
ATOM     12  C   UNL d   1     -31.861  20.808  24.945  0.00  0.00     0.031 A 
ENDROOT
BRANCH   4  13
ATOM     13  N   UNL d   1     -28.461  23.049  23.597  0.00  0.00    -0.349 N 
ATOM     14  H   UNL d   1     -28.329  23.961  23.901  0.00  0.00     0.166 HD
BRANCH  13  15
ATOM     15  C   UNL d   1     -27.556  22.473  22.704  0.00  0.00     0.054 A 
ATOM     16  C   UNL d   1     -26.189  22.668  22.875  0.00  0.00     0.060 A 
ATOM     17  C   UNL d   1     -25.297  22.099  21.986  0.00  0.00     0.026 A 
ATOM     18 CL   UNL d   1     -25.606  23.627  24.199  0.00  0.00    -0.082 Cl
ATOM     19  C   UNL d   1     -25.761  21.335  20.930  0.00  0.00     0.002 A 
ATOM     20  C   UNL d   1     -27.120  21.137  20.761  0.00  0.00     0.002 A 
ATOM     21  C   UNL d   1     -28.017  21.700  21.646  0.00  0.00     0.031 A 
ENDBRANCH  13  15
ENDBRANCH   4  13
BRANCH   3  22
ATOM     22  O   UNL d   1     -28.288  21.627  25.904  0.00  0.00    -0.355 OA
ATOM     23  H   UNL d   1     -28.222  22.353  26.539  0.00  0.00     0.218 HD
ENDBRANCH   3  22
TORSDOF 3
ENDMDL
