MODEL 1
REMARK VINA RESULT:     -10.4      0.000      0.000
REMARK  7 active torsions:
REMARK  status: ('A' for Active; 'I' for Inactive)
REMARK    1  A    between atoms: C_2  and  O_3 
REMARK    2  A    between atoms: C_2  and  C_4 
REMARK    3  A    between atoms: C_5  and  C_6 
REMARK       I    between atoms: C_6  and  N_8 
REMARK    4  A    between atoms: N_8  and  C_9 
REMARK    5  A    between atoms: C_12  and  O_13 
REMARK    6  A    between atoms: O_13  and  C_14 
REMARK    7  A    between atoms: C_14  and  C_15 
ROOT
ATOM      1  C   UNL d   1     -25.736  22.946  23.469  0.00  0.00     0.035 A 
ATOM      2  C   UNL d   1     -26.480  23.158  24.623  0.00  0.00     0.032 A 
ATOM      3  C   UNL d   1     -27.786  22.717  24.692  0.00  0.00     0.039 A 
ATOM      4  C   UNL d   1     -28.357  22.064  23.609  0.00  0.00     0.069 A 
ATOM      5  C   UNL d   1     -27.613  21.848  22.457  0.00  0.00     0.039 A 
ATOM      6  C   UNL d   1     -26.307  22.292  22.384  0.00  0.00     0.032 A 
ENDROOT
BRANCH   1   7
ATOM      7  N   UNL d   1     -24.411  23.392  23.398  0.00  0.00    -0.323 N 
ATOM      8  C   UNL d   1     -24.148  24.711  23.314  0.00  0.00     0.253 C 
ATOM      9  O   UNL d   1     -25.052  25.519  23.407  0.00  0.00    -0.268 OA
ATOM     10  H   UNL d   1     -23.683  22.751  23.408  0.00  0.00     0.169 HD
BRANCH   8  11
ATOM     11  C   UNL d   1     -22.762  25.176  23.110  0.00  0.00     0.023 C 
ATOM     12  C   UNL d   1     -22.100  25.119  21.946  0.00  0.00     0.027 C 
ATOM     13  C   UNL d   1     -20.706  25.680  22.101  0.00  0.00     0.046 C 
ATOM     14  C   UNL d   1     -20.453  25.702  23.625  0.00  0.00     0.010 C 
ATOM     15  C   UNL d   1     -21.892  25.789  24.183  0.00  0.00     0.045 C 
BRANCH  12  16
ATOM     16  C   UNL d   1     -22.656  24.583  20.690  0.00  0.00     0.172 C 
ATOM     17  O   UNL d   1     -23.001  23.419  20.625  0.00  0.00    -0.646 OA
BRANCH  16  18
ATOM     18  O   UNL d   1     -22.782  25.383  19.613  0.00  0.00    -0.773 OA
ATOM     19  H   UNL d   1     -22.869  24.951  18.752  0.00  0.00     0.167 HD
ENDBRANCH  16  18
ENDBRANCH  12  16
ENDBRANCH   8  11
ENDBRANCH   1   7
BRANCH   4  20
ATOM     20  O   UNL d   1     -29.643  21.631  23.678  0.00  0.00    -0.347 OA
BRANCH  20  21
ATOM     21  C   UNL d   1     -30.667  22.593  23.416  0.00  0.00     0.214 C 
BRANCH  21  22
ATOM     22  C   UNL d   1     -31.909  21.887  22.933  0.00  0.00    -0.034 A 
ATOM     23  C   UNL d   1     -32.667  21.141  23.816  0.00  0.00     0.009 A 
ATOM     24  C   UNL d   1     -33.805  20.494  23.374  0.00  0.00     0.001 A 
ATOM     25  C   UNL d   1     -34.186  20.592  22.049  0.00  0.00     0.000 A 
ATOM     26  C   UNL d   1     -33.428  21.339  21.166  0.00  0.00     0.001 A 
ATOM     27  C   UNL d   1     -32.292  21.990  21.609  0.00  0.00     0.009 A 
ENDBRANCH  21  22
ENDBRANCH  20  21
ENDBRANCH   4  20
TORSDOF 7
ENDMDL
