MODEL 1
REMARK VINA RESULT:     -11.0      0.000      0.000
REMARK  3 active torsions:
REMARK  status: ('A' for Active; 'I' for Inactive)
REMARK    1  A    between atoms: C_4  and  C_5 
REMARK       I    between atoms: C_5  and  N_7 
REMARK    2  A    between atoms: N_7  and  C_8 
REMARK    3  A    between atoms: N_16  and  C_17 
ROOT
ATOM      1  C   UNL d   1     -24.527  22.632  22.760  0.00  0.00     0.121 C 
ATOM      2  C   UNL d   1     -24.452  22.438  21.241  0.00  0.00     0.030 C 
ATOM      3  C   UNL d   1     -25.413  21.323  20.820  0.00  0.00     0.008 C 
ATOM      4  C   UNL d   1     -26.860  21.806  20.979  0.00  0.00     0.060 C 
ATOM      5  C   UNL d   1     -27.016  22.396  22.358  0.00  0.00     0.046 A 
ATOM      6  C   UNL d   1     -25.977  22.763  23.152  0.00  0.00     0.008 A 
ATOM      7  C   UNL d   1     -26.501  23.258  24.345  0.00  0.00     0.150 A 
ATOM      8  N   UNL d   1     -27.809  23.199  24.271  0.00  0.00    -0.179 NA
ATOM      9  N   UNL d   1     -28.156  22.654  23.026  0.00  0.00    -0.238 N 
ENDROOT
BRANCH   1  10
ATOM     10  N   UNL d   1     -23.804  23.850  23.137  0.00  0.00    -0.347 N 
ATOM     11  C   UNL d   1     -22.533  23.768  23.581  0.00  0.00     0.273 C 
ATOM     12  O   UNL d   1     -21.988  22.686  23.667  0.00  0.00    -0.266 OA
ATOM     13  H   UNL d   1     -24.239  24.714  23.068  0.00  0.00     0.163 HD
BRANCH  11  14
ATOM     14  C   UNL d   1     -21.801  25.001  23.962  0.00  0.00     0.154 A 
ATOM     15  C   UNL d   1     -20.472  25.085  24.464  0.00  0.00     0.074 A 
ATOM     16  C   UNL d   1     -20.278  26.411  24.651  0.00  0.00     0.077 A 
ATOM     17  C   UNL d   1     -19.028  27.073  25.171  0.00  0.00     0.079 C 
ATOM     18  O   UNL d   1     -21.415  27.020  24.289  0.00  0.00    -0.218 OA
ATOM     19  N   UNL d   1     -22.248  26.231  23.910  0.00  0.00    -0.123 NA
ENDBRANCH  11  14
ENDBRANCH   1  10
BRANCH   9  20
ATOM     20  C   UNL d   1     -29.458  22.423  22.559  0.00  0.00     0.059 A 
ATOM     21  C   UNL d   1     -30.475  22.126  23.454  0.00  0.00     0.039 A 
ATOM     22  C   UNL d   1     -31.756  21.899  22.991  0.00  0.00    -0.054 A 
ATOM     23  C   UNL d   1     -32.025  21.963  21.637  0.00  0.00    -0.056 A 
ATOM     24  C   UNL d   1     -32.862  21.574  23.962  0.00  0.00     0.049 C 
ATOM     25  C   UNL d   1     -31.014  22.264  20.742  0.00  0.00     0.009 A 
ATOM     26  C   UNL d   1     -33.422  21.708  21.134  0.00  0.00     0.049 C 
ATOM     27  C   UNL d   1     -29.731  22.492  21.199  0.00  0.00     0.032 A 
ENDBRANCH   9  20
TORSDOF 3
ENDMDL
