MODEL 1
REMARK VINA RESULT:     -10.9      0.000      0.000
REMARK  6 active torsions:
REMARK  status: ('A' for Active; 'I' for Inactive)
REMARK    1  A    between atoms: O_2  and  C_3 
REMARK    2  A    between atoms: C_7  and  C_8 
REMARK    3  A    between atoms: C_11  and  N_12 
REMARK    4  A    between atoms: N_12  and  C_13 
REMARK    5  A    between atoms: C_19  and  C_20 
REMARK    6  A    between atoms: C_20  and  O_22 
ROOT
ATOM      1  C   UNL d   1     -24.613  23.375  22.561  0.00  0.00     0.072 A 
ATOM      2  N   UNL d   1     -25.166  24.163  23.474  0.00  0.00    -0.258 NA
ATOM      3  C   UNL d   1     -26.318  23.866  24.039  0.00  0.00     0.146 A 
ATOM      4  C   UNL d   1     -27.001  22.706  23.692  0.00  0.00     0.050 A 
ATOM      5  C   UNL d   1     -26.454  21.855  22.733  0.00  0.00     0.040 A 
ATOM      6  C   UNL d   1     -25.241  22.196  22.165  0.00  0.00    -0.030 A 
ATOM      7  C   UNL d   1     -24.607  21.306  21.128  0.00  0.00     0.050 C 
ENDROOT
BRANCH   4   8
ATOM      8  N   UNL d   1     -28.223  22.399  24.295  0.00  0.00    -0.354 N 
ATOM      9  H   UNL d   1     -28.270  22.265  25.254  0.00  0.00     0.166 HD
BRANCH   8  10
ATOM     10  C   UNL d   1     -29.370  22.287  23.521  0.00  0.00     0.049 A 
ATOM     11  C   UNL d   1     -30.568  21.831  24.095  0.00  0.00     0.064 A 
ATOM     12  C   UNL d   1     -31.715  21.722  23.304  0.00  0.00     0.027 A 
ATOM     13  C   UNL d   1     -31.665  22.062  21.970  0.00  0.00    -0.061 A 
ATOM     14  C   UNL d   1     -30.481  22.511  21.406  0.00  0.00     0.009 A 
ATOM     15  C   UNL d   1     -32.903  21.943  21.120  0.00  0.00     0.048 C 
ATOM     16  C   UNL d   1     -29.341  22.630  22.175  0.00  0.00     0.031 A 
BRANCH  11  17
ATOM     17  C   UNL d   1     -30.615  21.469  25.523  0.00  0.00     0.178 C 
ATOM     18  O   UNL d   1     -31.485  21.925  26.237  0.00  0.00    -0.646 OA
BRANCH  17  19
ATOM     19  O   UNL d   1     -29.691  20.634  26.036  0.00  0.00    -0.773 OA
ATOM     20  H   UNL d   1     -29.174  20.112  25.407  0.00  0.00     0.167 HD
ENDBRANCH  17  19
ENDBRANCH  11  17
ENDBRANCH   8  10
ENDBRANCH   4   8
BRANCH   1  21
ATOM     21  C   UNL d   1     -23.314  23.754  21.955  0.00  0.00    -0.004 A 
ATOM     22  C   UNL d   1     -23.260  24.182  20.630  0.00  0.00     0.014 A 
ATOM     23  C   UNL d   1     -22.050  24.540  20.068  0.00  0.00     0.004 A 
ATOM     24  C   UNL d   1     -20.888  24.463  20.814  0.00  0.00     0.037 A 
ATOM     25  C   UNL d   1     -20.933  24.033  22.134  0.00  0.00     0.069 A 
ATOM     26  C   UNL d   1     -22.143  23.677  22.706  0.00  0.00     0.050 A 
BRANCH  25  27
ATOM     27  O   UNL d   1     -19.788  23.958  22.863  0.00  0.00    -0.356 OA
ATOM     28  C   UNL d   1     -19.799  24.572  24.153  0.00  0.00     0.210 C 
ENDBRANCH  25  27
ENDBRANCH   1  21
TORSDOF 6
ENDMDL
