MODEL 1
REMARK VINA RESULT:     -12.2      0.000      0.000
REMARK  4 active torsions:
REMARK  status: ('A' for Active; 'I' for Inactive)
REMARK    1  A    between atoms: C_3  and  C_4 
REMARK    2  A    between atoms: C_7  and  C_8 
REMARK    3  A    between atoms: C_25  and  C_26 
REMARK    4  A    between atoms: C_26  and  O_28 
ROOT
ATOM      1  C   UNL d   1     -27.643  22.061  25.670  0.00  0.00     0.052 C 
ATOM      2  C   UNL d   1     -28.527  22.133  24.453  0.00  0.00    -0.015 A 
ATOM      3  C   UNL d   1     -28.013  22.584  23.228  0.00  0.00     0.074 A 
ATOM      4  N   UNL d   1     -28.749  22.657  22.139  0.00  0.00    -0.247 NA
ATOM      5  C   UNL d   1     -30.038  22.310  22.124  0.00  0.00     0.069 A 
ATOM      6  C   UNL d   1     -30.800  22.399  20.945  0.00  0.00     0.034 A 
ATOM      7  C   UNL d   1     -32.111  22.039  20.960  0.00  0.00     0.026 A 
ATOM      8  C   UNL d   1     -32.719  21.581  22.129  0.00  0.00     0.035 A 
ATOM      9 CL   UNL d   1     -34.395  21.131  22.105  0.00  0.00    -0.084 Cl
ATOM     10  C   UNL d   1     -32.010  21.483  23.291  0.00  0.00     0.038 A 
ATOM     11  C   UNL d   1     -30.659  21.845  23.311  0.00  0.00     0.012 A 
ATOM     12  C   UNL d   1     -29.862  21.756  24.533  0.00  0.00     0.058 A 
ENDROOT
BRANCH   3  13
ATOM     13  C   UNL d   1     -26.589  22.988  23.156  0.00  0.00    -0.007 A 
ATOM     14  C   UNL d   1     -26.173  24.186  23.739  0.00  0.00     0.014 A 
ATOM     15  C   UNL d   1     -24.849  24.558  23.677  0.00  0.00     0.013 A 
ATOM     16  C   UNL d   1     -23.925  23.744  23.021  0.00  0.00    -0.023 A 
ATOM     17  C   UNL d   1     -24.340  22.547  22.439  0.00  0.00     0.013 A 
ATOM     18  C   UNL d   1     -25.664  22.171  22.506  0.00  0.00     0.014 A 
BRANCH  16  19
ATOM     19  C   UNL d   1     -22.500  24.148  22.950  0.00  0.00     0.015 A 
ATOM     20  C   UNL d   1     -21.959  24.631  21.759  0.00  0.00     0.136 A 
ATOM     21  N   UNL d   1     -20.692  24.990  21.695  0.00  0.00    -0.248 NA
ATOM     22 CL   UNL d   1     -22.961  24.757  20.347  0.00  0.00    -0.061 Cl
ATOM     23  C   UNL d   1     -19.893  24.912  22.741  0.00  0.00     0.118 A 
ATOM     24  C   UNL d   1     -20.355  24.444  23.958  0.00  0.00     0.020 A 
ATOM     25  C   UNL d   1     -21.678  24.053  24.077  0.00  0.00     0.017 A 
ENDBRANCH  16  19
ENDBRANCH   3  13
BRANCH  12  26
ATOM     26  C   UNL d   1     -30.450  21.279  25.803  0.00  0.00     0.177 C 
ATOM     27  O   UNL d   1     -31.123  22.030  26.480  0.00  0.00    -0.646 OA
BRANCH  26  28
ATOM     28  O   UNL d   1     -30.239  20.013  26.210  0.00  0.00    -0.773 OA
ATOM     29  H   UNL d   1     -29.323  19.748  26.367  0.00  0.00     0.167 HD
ENDBRANCH  26  28
ENDBRANCH  12  26
TORSDOF 4
ENDMDL
