MODEL 1
REMARK VINA RESULT:     -10.1      0.000      0.000
REMARK  6 active torsions:
REMARK  status: ('A' for Active; 'I' for Inactive)
REMARK    1  A    between atoms: C_2  and  C_4 
REMARK    2  A    between atoms: N_6  and  C_7 
REMARK    3  A    between atoms: C_20  and  N_21 
REMARK    4  A    between atoms: C_23  and  C_24 
REMARK    5  A    between atoms: C_24  and  O_25 
REMARK    6  A    between atoms: N_26  and  C_27 
ROOT
ATOM      1  C   UNL d   1     -25.670  24.093  23.585  0.00  0.00    -0.004 A 
ATOM      2  C   UNL d   1     -24.380  24.263  23.199  0.00  0.00     0.113 A 
ATOM      3  N   UNL d   1     -23.860  23.632  22.108  0.00  0.00    -0.286 N 
ATOM      4  C   UNL d   1     -24.588  22.799  21.340  0.00  0.00     0.263 A 
ATOM      5  O   UNL d   1     -24.082  22.257  20.373  0.00  0.00    -0.267 OA
ATOM      6  C   UNL d   1     -25.993  22.549  21.674  0.00  0.00     0.047 A 
ATOM      7  C   UNL d   1     -26.791  21.694  20.909  0.00  0.00     0.062 A 
ATOM      8  C   UNL d   1     -28.096  21.492  21.259  0.00  0.00     0.146 A 
ATOM      9  F   UNL d   1     -28.865  20.665  20.518  0.00  0.00    -0.204 F 
ATOM     10  C   UNL d   1     -28.644  22.130  22.376  0.00  0.00     0.103 A 
ATOM     11  C   UNL d   1     -27.873  22.987  23.144  0.00  0.00     0.048 A 
ATOM     12  C   UNL d   1     -26.540  23.198  22.804  0.00  0.00    -0.006 A 
ENDROOT
BRANCH  10  13
ATOM     13  N   UNL d   1     -29.981  21.909  22.715  0.00  0.00    -0.178 N 
ATOM     14  C   UNL d   1     -31.049  22.075  21.907  0.00  0.00     0.351 A 
ATOM     15  N   UNL d   1     -32.149  21.759  22.621  0.00  0.00    -0.283 N 
ATOM     16  O   UNL d   1     -31.025  22.447  20.748  0.00  0.00    -0.244 OA
ATOM     17  C   UNL d   1     -31.752  21.384  23.881  0.00  0.00     0.154 A 
ATOM     18  N   UNL d   1     -30.462  21.467  23.955  0.00  0.00    -0.147 NA
BRANCH  15  19
ATOM     19  C   UNL d   1     -33.529  21.803  22.133  0.00  0.00     0.131 C 
ATOM     20  C   UNL d   1     -33.945  20.412  21.652  0.00  0.00     0.027 C 
ENDBRANCH  15  19
BRANCH  17  21
ATOM     21  C   UNL d   1     -32.668  20.948  24.995  0.00  0.00     0.244 C 
BRANCH  21  22
ATOM     22  O   UNL d   1     -32.047  21.212  26.254  0.00  0.00    -0.393 OA
ATOM     23  H   UNL d   1     -32.265  20.569  26.943  0.00  0.00     0.209 HD
ENDBRANCH  21  22
ENDBRANCH  17  21
ENDBRANCH  10  13
BRANCH   1  24
ATOM     24  C   UNL d   1     -26.194  24.794  24.773  0.00  0.00    -0.059 C 
ATOM     25  C   UNL d   1     -26.028  26.106  24.897  0.00  0.00     0.019 C 
ATOM     26  C   UNL d   1     -26.917  24.022  25.846  0.00  0.00     0.048 C 
ENDBRANCH   1  24
BRANCH   3  27
ATOM     27  C   UNL d   1     -22.519  23.860  21.772  0.00  0.00     0.063 A 
ATOM     28  C   UNL d   1     -21.509  23.484  22.650  0.00  0.00     0.061 A 
ATOM     29  C   UNL d   1     -20.187  23.711  22.315  0.00  0.00     0.026 A 
ATOM     30 CL   UNL d   1     -21.906  22.730  24.162  0.00  0.00    -0.082 Cl
ATOM     31  C   UNL d   1     -19.870  24.310  21.110  0.00  0.00     0.002 A 
ATOM     32  C   UNL d   1     -20.874  24.686  20.236  0.00  0.00     0.002 A 
ATOM     33  C   UNL d   1     -22.197  24.457  20.561  0.00  0.00     0.032 A 
ENDBRANCH   3  27
TORSDOF 6
ENDMDL
