MODEL 1
REMARK VINA RESULT:     -10.6      0.000      0.000
REMARK  7 active torsions:
REMARK  status: ('A' for Active; 'I' for Inactive)
REMARK    1  A    between atoms: O_2  and  C_3 
REMARK    2  A    between atoms: C_7  and  C_8 
REMARK    3  A    between atoms: C_11  and  N_12 
REMARK       I    between atoms: N_12  and  C_13 
REMARK    4  A    between atoms: C_13  and  C_15 
REMARK    5  A    between atoms: C_16  and  C_17 
REMARK    6  A    between atoms: C_17  and  O_19 
REMARK    7  A    between atoms: C_23  and  O_24 
ROOT
ATOM      1  C   UNL d   1     -25.507  23.520  23.480  0.00  0.00    -0.023 A 
ATOM      2  C   UNL d   1     -26.329  23.821  24.565  0.00  0.00     0.014 A 
ATOM      3  C   UNL d   1     -27.510  23.133  24.748  0.00  0.00     0.033 A 
ATOM      4  C   UNL d   1     -27.883  22.139  23.853  0.00  0.00     0.068 A 
ATOM      5  C   UNL d   1     -27.061  21.831  22.769  0.00  0.00     0.095 A 
ATOM      6  C   UNL d   1     -25.879  22.524  22.580  0.00  0.00     0.051 A 
ENDROOT
BRANCH   4   7
ATOM      7  N   UNL d   1     -29.080  21.443  24.041  0.00  0.00    -0.321 N 
ATOM      8  C   UNL d   1     -30.249  21.996  23.659  0.00  0.00     0.253 C 
ATOM      9  O   UNL d   1     -30.254  23.054  23.060  0.00  0.00    -0.268 OA
ATOM     10  H   UNL d   1     -29.071  20.562  24.447  0.00  0.00     0.169 HD
BRANCH   8  11
ATOM     11  C   UNL d   1     -31.523  21.317  23.966  0.00  0.00     0.023 C 
ATOM     12  C   UNL d   1     -32.710  21.253  23.033  0.00  0.00     0.045 C 
ATOM     13  C   UNL d   1     -33.899  20.841  23.931  0.00  0.00     0.010 C 
ATOM     14  C   UNL d   1     -33.185  20.096  25.083  0.00  0.00     0.046 C 
ATOM     15  C   UNL d   1     -31.788  20.672  25.110  0.00  0.00     0.027 C 
BRANCH  15  16
ATOM     16  C   UNL d   1     -30.848  20.541  26.238  0.00  0.00     0.172 C 
ATOM     17  O   UNL d   1     -30.432  21.533  26.803  0.00  0.00    -0.646 OA
BRANCH  16  18
ATOM     18  O   UNL d   1     -30.448  19.319  26.642  0.00  0.00    -0.773 OA
ATOM     19  H   UNL d   1     -29.656  19.276  27.196  0.00  0.00     0.167 HD
ENDBRANCH  16  18
ENDBRANCH  15  16
ENDBRANCH   8  11
ENDBRANCH   4   7
BRANCH   5  20
ATOM     20  O   UNL d   1     -27.425  20.854  21.897  0.00  0.00    -0.354 OA
ATOM     21  C   UNL d   1     -27.864  21.271  20.602  0.00  0.00     0.210 C 
ENDBRANCH   5  20
BRANCH   1  22
ATOM     22  C   UNL d   1     -24.237  24.261  23.283  0.00  0.00    -0.023 A 
ATOM     23  C   UNL d   1     -24.214  25.651  23.388  0.00  0.00     0.012 A 
ATOM     24  C   UNL d   1     -23.031  26.338  23.209  0.00  0.00     0.004 A 
ATOM     25  C   UNL d   1     -21.867  25.652  22.915  0.00  0.00     0.037 A 
ATOM     26  C   UNL d   1     -21.881  24.268  22.802  0.00  0.00     0.069 A 
ATOM     27  C   UNL d   1     -23.064  23.571  22.986  0.00  0.00     0.049 A 
BRANCH  26  28
ATOM     28  O   UNL d   1     -20.735  23.598  22.513  0.00  0.00    -0.356 OA
ATOM     29  C   UNL d   1     -19.699  24.336  21.862  0.00  0.00     0.210 C 
ENDBRANCH  26  28
ENDBRANCH   1  22
TORSDOF 7
ENDMDL
