MODEL 1
REMARK VINA RESULT:      -9.6      0.000      0.000
REMARK  7 active torsions:
REMARK  status: ('A' for Active; 'I' for Inactive)
REMARK    1  A    between atoms: O_2  and  C_3 
REMARK    2  A    between atoms: C_7  and  C_8 
REMARK    3  A    between atoms: C_12  and  N_13 
REMARK       I    between atoms: N_13  and  C_14 
REMARK    4  A    between atoms: C_14  and  C_16 
REMARK    5  A    between atoms: C_19  and  O_21 
REMARK    6  A    between atoms: C_23  and  O_24 
REMARK    7  A    between atoms: O_24  and  C_25 
ROOT
ATOM      1  C   UNL d   1     -31.203  21.866  22.765  0.00  0.00     0.141 C 
ATOM      2  C   UNL d   1     -32.145  21.843  21.687  0.00  0.00     0.107 C 
ATOM      3  N   UNL d   1     -32.893  21.825  20.832  0.00  0.00    -0.191 NA
ATOM      4  C   UNL d   1     -31.569  21.424  24.000  0.00  0.00     0.065 C 
ATOM      5  C   UNL d   1     -32.967  20.909  24.233  0.00  0.00     0.077 C 
ENDROOT
BRANCH   1   6
ATOM      6  C   UNL d   1     -29.840  22.368  22.537  0.00  0.00     0.269 C 
ATOM      7  N   UNL d   1     -28.780  21.672  22.994  0.00  0.00    -0.320 N 
ATOM      8  H   UNL d   1     -28.918  20.885  23.544  0.00  0.00     0.169 HD
ATOM      9  O   UNL d   1     -29.668  23.412  21.937  0.00  0.00    -0.266 OA
BRANCH   7  10
ATOM     10  C   UNL d   1     -27.482  22.083  22.674  0.00  0.00     0.076 A 
ATOM     11  C   UNL d   1     -26.861  21.592  21.529  0.00  0.00     0.144 A 
ATOM     12  C   UNL d   1     -25.581  21.995  21.210  0.00  0.00     0.059 A 
ATOM     13  F   UNL d   1     -27.512  20.721  20.729  0.00  0.00    -0.204 F 
ATOM     14  C   UNL d   1     -24.909  22.899  22.032  0.00  0.00     0.011 A 
ATOM     15  C   UNL d   1     -25.532  23.387  23.184  0.00  0.00     0.082 A 
ATOM     16  C   UNL d   1     -26.817  22.979  23.499  0.00  0.00     0.070 A 
BRANCH  14  17
ATOM     17  C   UNL d   1     -23.535  23.338  21.688  0.00  0.00    -0.021 A 
ATOM     18  C   UNL d   1     -23.254  23.822  20.412  0.00  0.00     0.012 A 
ATOM     19  C   UNL d   1     -21.973  24.229  20.094  0.00  0.00     0.004 A 
ATOM     20  C   UNL d   1     -20.968  24.159  21.039  0.00  0.00     0.037 A 
ATOM     21  C   UNL d   1     -21.239  23.679  22.314  0.00  0.00     0.069 A 
ATOM     22  C   UNL d   1     -22.521  23.272  22.643  0.00  0.00     0.049 A 
BRANCH  21  23
ATOM     23  O   UNL d   1     -20.247  23.612  23.239  0.00  0.00    -0.356 OA
ATOM     24  C   UNL d   1     -20.161  24.686  24.178  0.00  0.00     0.210 C 
ENDBRANCH  21  23
ENDBRANCH  14  17
BRANCH  15  25
ATOM     25  O   UNL d   1     -24.880  24.265  23.991  0.00  0.00    -0.346 OA
BRANCH  25  26
ATOM     26  C   UNL d   1     -25.230  25.644  23.867  0.00  0.00     0.120 C 
ATOM     27  C   UNL d   1     -23.958  26.482  23.725  0.00  0.00     0.040 C 
ATOM     28  C   UNL d   1     -26.000  26.091  25.111  0.00  0.00     0.040 C 
ENDBRANCH  25  26
ENDBRANCH  15  25
ENDBRANCH   7  10
ENDBRANCH   1   6
BRANCH   4  29
ATOM     29  O   UNL d   1     -30.684  21.446  25.012  0.00  0.00    -0.364 OA
ATOM     30  H   UNL d   1     -29.785  21.733  24.802  0.00  0.00     0.217 HD
ENDBRANCH   4  29
TORSDOF 7
ENDMDL
