MODEL 1
REMARK VINA RESULT:     -12.2      0.000      0.000
REMARK  5 active torsions:
REMARK  status: ('A' for Active; 'I' for Inactive)
REMARK    1  A    between atoms: C_2  and  O_3 
REMARK    2  A    between atoms: O_3  and  N_4 
REMARK       I    between atoms: N_4  and  C_5 
REMARK    3  A    between atoms: C_5  and  C_7 
REMARK    4  A    between atoms: C_10  and  C_11 
REMARK    5  A    between atoms: C_14  and  C_15 
ROOT
ATOM      1  C   UNL d   1     -30.037  21.727  24.404  0.00  0.00     0.054 A 
ATOM      2  C   UNL d   1     -28.703  22.107  24.330  0.00  0.00    -0.016 A 
ATOM      3  C   UNL d   1     -27.818  22.015  25.546  0.00  0.00     0.052 C 
ATOM      4  C   UNL d   1     -28.190  22.583  23.115  0.00  0.00     0.074 A 
ATOM      5  N   UNL d   1     -28.926  22.674  22.028  0.00  0.00    -0.247 NA
ATOM      6  C   UNL d   1     -30.214  22.326  22.007  0.00  0.00     0.069 A 
ATOM      7  C   UNL d   1     -30.975  22.435  20.827  0.00  0.00     0.035 A 
ATOM      8  C   UNL d   1     -32.287  22.073  20.836  0.00  0.00     0.044 A 
ATOM      9  C   UNL d   1     -32.894  21.593  21.996  0.00  0.00     0.117 A 
ATOM     10  F   UNL d   1     -34.198  21.241  21.972  0.00  0.00    -0.206 F 
ATOM     11  C   UNL d   1     -32.186  21.474  23.157  0.00  0.00     0.057 A 
ATOM     12  C   UNL d   1     -30.835  21.838  23.184  0.00  0.00     0.012 A 
ENDROOT
BRANCH   4  13
ATOM     13  C   UNL d   1     -26.766  22.991  23.052  0.00  0.00    -0.007 A 
ATOM     14  C   UNL d   1     -26.337  24.132  23.729  0.00  0.00     0.014 A 
ATOM     15  C   UNL d   1     -25.013  24.508  23.674  0.00  0.00     0.013 A 
ATOM     16  C   UNL d   1     -24.104  23.755  22.931  0.00  0.00    -0.023 A 
ATOM     17  C   UNL d   1     -24.534  22.613  22.253  0.00  0.00     0.013 A 
ATOM     18  C   UNL d   1     -25.856  22.235  22.312  0.00  0.00     0.014 A 
BRANCH  16  19
ATOM     19  C   UNL d   1     -22.680  24.163  22.867  0.00  0.00     0.013 A 
ATOM     20  C   UNL d   1     -22.189  24.814  21.734  0.00  0.00     0.127 A 
ATOM     21  C   UNL d   1     -20.858  25.187  21.679  0.00  0.00     0.043 A 
ATOM     22  F   UNL d   1     -23.009  25.075  20.693  0.00  0.00    -0.205 F 
ATOM     23  C   UNL d   1     -20.020  24.925  22.746  0.00  0.00     0.003 A 
ATOM     24  C   UNL d   1     -20.503  24.279  23.870  0.00  0.00     0.001 A 
ATOM     25  C   UNL d   1     -21.827  23.897  23.937  0.00  0.00     0.015 A 
ENDBRANCH  16  19
ENDBRANCH   4  13
BRANCH   1  26
ATOM     26  C   UNL d   1     -30.625  21.226  25.665  0.00  0.00     0.276 C 
ATOM     27  N   UNL d   1     -30.578  19.911  25.954  0.00  0.00    -0.231 N 
ATOM     28  H   UNL d   1     -30.158  19.292  25.336  0.00  0.00     0.197 HD
ATOM     29  O   UNL d   1     -31.151  22.000  26.440  0.00  0.00    -0.265 OA
BRANCH  27  30
ATOM     30  O   UNL d   1     -31.142  19.430  27.161  0.00  0.00    -0.278 OA
BRANCH  30  31
ATOM     31  C   UNL d   1     -31.642  18.094  27.078  0.00  0.00     0.197 C 
ATOM     32  C   UNL d   1     -32.717  18.020  25.992  0.00  0.00     0.036 C 
ENDBRANCH  30  31
ENDBRANCH  27  30
ENDBRANCH   1  26
TORSDOF 5
ENDMDL
