MODEL 1
REMARK VINA RESULT:     -12.3      0.000      0.000
REMARK  4 active torsions:
REMARK  status: ('A' for Active; 'I' for Inactive)
REMARK    1  A    between atoms: C_4  and  C_5 
REMARK    2  A    between atoms: C_5  and  O_7 
REMARK    3  A    between atoms: C_10  and  C_11 
REMARK    4  A    between atoms: C_16  and  C_17 
ROOT
ATOM      1  C   UNL d   1     -26.754  22.766  22.849  0.00  0.00     0.093 A 
ATOM      2  C   UNL d   1     -26.132  23.809  23.543  0.00  0.00     0.173 A 
ATOM      3  F   UNL d   1     -26.833  24.536  24.440  0.00  0.00    -0.202 F 
ATOM      4  C   UNL d   1     -24.802  24.096  23.310  0.00  0.00     0.170 A 
ATOM      5  F   UNL d   1     -24.201  25.103  23.981  0.00  0.00    -0.202 F 
ATOM      6  C   UNL d   1     -24.076  23.345  22.383  0.00  0.00     0.059 A 
ATOM      7  C   UNL d   1     -24.697  22.307  21.685  0.00  0.00     0.170 A 
ATOM      8  F   UNL d   1     -23.995  21.584  20.785  0.00  0.00    -0.202 F 
ATOM      9  C   UNL d   1     -26.026  22.014  21.920  0.00  0.00     0.173 A 
ATOM     10  F   UNL d   1     -26.625  21.006  21.249  0.00  0.00    -0.202 F 
ENDROOT
BRANCH   1  11
ATOM     11  C   UNL d   1     -28.176  22.458  23.097  0.00  0.00     0.145 A 
ATOM     12  N   UNL d   1     -28.659  21.962  24.213  0.00  0.00    -0.227 NA
ATOM     13  C   UNL d   1     -29.989  21.804  24.103  0.00  0.00     0.102 A 
ATOM     14  C   UNL d   1     -30.985  21.321  24.981  0.00  0.00     0.069 A 
ATOM     15  C   UNL d   1     -30.358  22.237  22.817  0.00  0.00     0.064 A 
ATOM     16  C   UNL d   1     -32.312  21.283  24.558  0.00  0.00     0.027 A 
ATOM     17  C   UNL d   1     -32.653  21.713  23.290  0.00  0.00    -0.059 A 
ATOM     18  C   UNL d   1     -34.093  21.665  22.847  0.00  0.00     0.048 C 
ATOM     19  C   UNL d   1     -31.686  22.187  22.422  0.00  0.00     0.038 A 
ATOM     20  N   UNL d   1     -29.192  22.652  22.201  0.00  0.00    -0.338 N 
ATOM     21  H   UNL d   1     -29.109  23.011  21.304  0.00  0.00     0.167 HD
BRANCH  14  22
ATOM     22  C   UNL d   1     -30.623  20.861  26.332  0.00  0.00     0.178 C 
ATOM     23  O   UNL d   1     -31.002  19.776  26.726  0.00  0.00    -0.646 OA
BRANCH  22  24
ATOM     24  O   UNL d   1     -29.871  21.645  27.131  0.00  0.00    -0.773 OA
ATOM     25  H   UNL d   1     -30.175  22.553  27.266  0.00  0.00     0.167 HD
ENDBRANCH  22  24
ENDBRANCH  14  22
ENDBRANCH   1  11
BRANCH   6  26
ATOM     26  C   UNL d   1     -22.648  23.655  22.133  0.00  0.00    -0.002 A 
ATOM     27  C   UNL d   1     -21.675  23.310  23.068  0.00  0.00     0.128 A 
ATOM     28  N   UNL d   1     -20.406  23.588  22.849  0.00  0.00    -0.272 NA
ATOM     29  C   UNL d   1     -20.006  24.199  21.751  0.00  0.00     0.116 A 
ATOM     30  C   UNL d   1     -20.912  24.575  20.775  0.00  0.00     0.020 A 
ATOM     31  C   UNL d   1     -22.257  24.304  20.958  0.00  0.00     0.015 A 
ENDBRANCH   6  26
TORSDOF 4
ENDMDL
