MODEL 1
REMARK VINA RESULT:     -11.3      0.000      0.000
REMARK  8 active torsions:
REMARK  status: ('A' for Active; 'I' for Inactive)
REMARK    1  A    between atoms: C_2  and  O_3 
REMARK    2  A    between atoms: C_2  and  C_4 
REMARK    3  A    between atoms: C_5  and  C_6 
REMARK       I    between atoms: C_6  and  N_8 
REMARK    4  A    between atoms: N_8  and  C_9 
REMARK    5  A    between atoms: C_12  and  C_13 
REMARK    6  A    between atoms: C_17  and  O_18 
REMARK    7  A    between atoms: O_18  and  C_19 
REMARK    8  A    between atoms: C_25  and  C_26 
ROOT
ATOM      1  C   UNL d   1     -25.533  22.846  23.252  0.00  0.00     0.050 A 
ATOM      2  C   UNL d   1     -26.093  23.271  24.452  0.00  0.00     0.031 A 
ATOM      3  C   UNL d   1     -27.416  23.004  24.729  0.00  0.00     0.014 A 
ATOM      4  C   UNL d   1     -28.197  22.317  23.801  0.00  0.00    -0.025 A 
ATOM      5  C   UNL d   1     -27.635  21.893  22.598  0.00  0.00     0.030 A 
ATOM      6  C   UNL d   1     -26.309  22.157  22.327  0.00  0.00     0.075 A 
ENDROOT
BRANCH   1   7
ATOM      7  N   UNL d   1     -24.191  23.112  22.976  0.00  0.00    -0.322 N 
ATOM      8  C   UNL d   1     -23.761  24.386  22.888  0.00  0.00     0.253 C 
ATOM      9  O   UNL d   1     -24.516  25.302  23.147  0.00  0.00    -0.268 OA
ATOM     10  H   UNL d   1     -23.568  22.380  22.848  0.00  0.00     0.169 HD
BRANCH   8  11
ATOM     11  C   UNL d   1     -22.372  24.669  22.475  0.00  0.00     0.023 C 
ATOM     12  C   UNL d   1     -21.527  25.472  23.135  0.00  0.00     0.027 C 
ATOM     13  C   UNL d   1     -20.191  25.531  22.430  0.00  0.00     0.046 C 
ATOM     14  C   UNL d   1     -20.467  24.986  21.011  0.00  0.00     0.010 C 
ATOM     15  C   UNL d   1     -21.703  24.088  21.250  0.00  0.00     0.045 C 
BRANCH  12  16
ATOM     16  C   UNL d   1     -21.854  26.198  24.376  0.00  0.00     0.172 C 
ATOM     17  O   UNL d   1     -21.429  25.800  25.442  0.00  0.00    -0.646 OA
BRANCH  16  18
ATOM     18  O   UNL d   1     -22.625  27.302  24.329  0.00  0.00    -0.773 OA
ATOM     19  H   UNL d   1     -22.288  28.093  24.772  0.00  0.00     0.167 HD
ENDBRANCH  16  18
ENDBRANCH  12  16
ENDBRANCH   8  11
ENDBRANCH   1   7
BRANCH   6  20
ATOM     20  C   UNL d   1     -25.700  21.698  21.026  0.00  0.00     0.419 C 
ATOM     21  F   UNL d   1     -26.699  21.159  20.209  0.00  0.00    -0.166 F 
ATOM     22  F   UNL d   1     -25.106  22.787  20.379  0.00  0.00    -0.166 F 
ATOM     23  F   UNL d   1     -24.732  20.722  21.284  0.00  0.00    -0.166 F 
ENDBRANCH   6  20
BRANCH   4  24
ATOM     24  C   UNL d   1     -29.624  22.033  24.095  0.00  0.00    -0.023 A 
ATOM     25  C   UNL d   1     -30.614  22.441  23.204  0.00  0.00     0.049 A 
ATOM     26  C   UNL d   1     -31.944  22.173  23.485  0.00  0.00     0.079 A 
ATOM     27  C   UNL d   1     -32.287  21.500  24.650  0.00  0.00     0.037 A 
ATOM     28  C   UNL d   1     -31.303  21.095  25.533  0.00  0.00     0.004 A 
ATOM     29  C   UNL d   1     -29.975  21.352  25.259  0.00  0.00     0.012 A 
BRANCH  26  30
ATOM     30  O   UNL d   1     -32.914  22.568  22.619  0.00  0.00    -0.255 OA
BRANCH  30  31
ATOM     31  C   UNL d   1     -33.091  21.782  21.439  0.00  0.00     0.530 C 
ATOM     32  F   UNL d   1     -33.308  20.447  21.795  0.00  0.00    -0.144 F 
ATOM     33  F   UNL d   1     -34.193  22.258  20.722  0.00  0.00    -0.144 F 
ATOM     34  F   UNL d   1     -31.944  21.871  20.643  0.00  0.00    -0.144 F 
ENDBRANCH  30  31
ENDBRANCH  26  30
ENDBRANCH   4  24
TORSDOF 8
ENDMDL
