MODEL 1
REMARK VINA RESULT:      -9.2      0.000      0.000
REMARK  6 active torsions:
REMARK  status: ('A' for Active; 'I' for Inactive)
REMARK    1  A    between atoms: C_2  and  C_4 
REMARK    2  A    between atoms: N_6  and  C_7 
REMARK    3  A    between atoms: C_21  and  N_22 
REMARK    4  A    between atoms: C_24  and  C_25 
REMARK    5  A    between atoms: C_25  and  O_26 
REMARK    6  A    between atoms: N_27  and  C_28 
ROOT
ATOM      1  C   UNL d   1     -25.877  23.980  23.817  0.00  0.00    -0.004 A 
ATOM      2  C   UNL d   1     -24.582  24.164  23.452  0.00  0.00     0.113 A 
ATOM      3  N   UNL d   1     -24.065  23.619  22.313  0.00  0.00    -0.286 N 
ATOM      4  C   UNL d   1     -24.801  22.864  21.474  0.00  0.00     0.263 A 
ATOM      5  O   UNL d   1     -24.297  22.398  20.468  0.00  0.00    -0.267 OA
ATOM      6  C   UNL d   1     -26.211  22.607  21.780  0.00  0.00     0.047 A 
ATOM      7  C   UNL d   1     -27.016  21.831  20.944  0.00  0.00     0.062 A 
ATOM      8  C   UNL d   1     -28.326  21.618  21.271  0.00  0.00     0.146 A 
ATOM      9  F   UNL d   1     -29.103  20.867  20.461  0.00  0.00    -0.204 F 
ATOM     10  C   UNL d   1     -28.871  22.169  22.434  0.00  0.00     0.103 A 
ATOM     11  C   UNL d   1     -28.092  22.948  23.275  0.00  0.00     0.048 A 
ATOM     12  C   UNL d   1     -26.755  23.167  22.959  0.00  0.00    -0.006 A 
ENDROOT
BRANCH  10  13
ATOM     13  N   UNL d   1     -30.213  21.939  22.748  0.00  0.00    -0.178 N 
ATOM     14  C   UNL d   1     -30.697  21.535  23.941  0.00  0.00     0.351 A 
ATOM     15  N   UNL d   1     -32.035  21.432  23.820  0.00  0.00    -0.283 N 
ATOM     16  O   UNL d   1     -30.044  21.304  24.943  0.00  0.00    -0.244 OA
ATOM     17  C   UNL d   1     -32.381  21.784  22.538  0.00  0.00     0.154 A 
ATOM     18  N   UNL d   1     -31.306  22.090  21.885  0.00  0.00    -0.147 NA
BRANCH  15  19
ATOM     19  C   UNL d   1     -32.963  21.020  24.875  0.00  0.00     0.131 C 
ATOM     20  C   UNL d   1     -32.645  19.586  25.303  0.00  0.00     0.027 C 
ENDBRANCH  15  19
BRANCH  17  21
ATOM     21  C   UNL d   1     -33.782  21.811  21.983  0.00  0.00     0.244 C 
BRANCH  21  22
ATOM     22  O   UNL d   1     -33.754  22.302  20.642  0.00  0.00    -0.393 OA
ATOM     23  H   UNL d   1     -33.444  23.215  20.563  0.00  0.00     0.209 HD
ENDBRANCH  21  22
ENDBRANCH  17  21
ENDBRANCH  10  13
BRANCH   1  24
ATOM     24  C   UNL d   1     -26.397  24.586  25.058  0.00  0.00    -0.059 C 
ATOM     25  C   UNL d   1     -26.286  25.894  25.256  0.00  0.00     0.019 C 
ATOM     26  C   UNL d   1     -27.055  23.718  26.100  0.00  0.00     0.048 C 
ENDBRANCH   1  24
BRANCH   3  27
ATOM     27  C   UNL d   1     -22.719  23.854  22.004  0.00  0.00     0.064 A 
ATOM     28  C   UNL d   1     -21.720  23.408  22.862  0.00  0.00     0.061 A 
ATOM     29  C   UNL d   1     -20.393  23.637  22.552  0.00  0.00     0.026 A 
ATOM     30 CL   UNL d   1     -22.140  22.560  24.318  0.00  0.00    -0.082 Cl
ATOM     31  C   UNL d   1     -20.060  24.316  21.394  0.00  0.00     0.008 A 
ATOM     32  C   UNL d   1     -21.051  24.765  20.542  0.00  0.00    -0.060 A 
ATOM     33  C   UNL d   1     -22.380  24.535  20.844  0.00  0.00     0.038 A 
ATOM     34  C   UNL d   1     -20.683  25.505  19.282  0.00  0.00     0.048 C 
ENDBRANCH   3  27
TORSDOF 6
ENDMDL
