MODEL 1
REMARK VINA RESULT:     -10.2      0.000      0.000
REMARK  6 active torsions:
REMARK  status: ('A' for Active; 'I' for Inactive)
REMARK    1  A    between atoms: C_2  and  C_4 
REMARK    2  A    between atoms: N_6  and  C_7 
REMARK    3  A    between atoms: C_21  and  N_22 
REMARK    4  A    between atoms: C_24  and  C_25 
REMARK    5  A    between atoms: C_25  and  O_26 
REMARK    6  A    between atoms: N_27  and  C_28 
ROOT
ATOM      1  C   UNL d   1     -25.679  24.088  23.609  0.00  0.00     0.015 A 
ATOM      2  C   UNL d   1     -24.379  24.274  23.263  0.00  0.00     0.115 A 
ATOM      3  N   UNL d   1     -23.814  23.646  22.195  0.00  0.00    -0.283 N 
ATOM      4  C   UNL d   1     -24.506  22.797  21.411  0.00  0.00     0.265 A 
ATOM      5  O   UNL d   1     -23.963  22.255  20.465  0.00  0.00    -0.267 OA
ATOM      6  C   UNL d   1     -25.916  22.530  21.703  0.00  0.00     0.065 A 
ATOM      7  C   UNL d   1     -26.682  21.657  20.922  0.00  0.00     0.066 A 
ATOM      8  C   UNL d   1     -27.994  21.465  21.267  0.00  0.00     0.165 A 
ATOM      9  F   UNL d   1     -28.771  20.631  20.542  0.00  0.00    -0.202 F 
ATOM     10  C   UNL d   1     -28.525  22.136  22.374  0.00  0.00     0.195 A 
ATOM     11  N   UNL d   1     -27.788  22.961  23.098  0.00  0.00    -0.225 NA
ATOM     12  C   UNL d   1     -26.513  23.176  22.808  0.00  0.00     0.087 A 
ENDROOT
BRANCH  10  13
ATOM     13  N   UNL d   1     -29.859  21.934  22.716  0.00  0.00    -0.159 N 
ATOM     14  C   UNL d   1     -30.929  22.133  21.918  0.00  0.00     0.352 A 
ATOM     15  N   UNL d   1     -32.029  21.821  22.632  0.00  0.00    -0.283 N 
ATOM     16  O   UNL d   1     -30.904  22.518  20.763  0.00  0.00    -0.244 OA
ATOM     17  C   UNL d   1     -31.633  21.425  23.885  0.00  0.00     0.154 A 
ATOM     18  N   UNL d   1     -30.342  21.486  23.955  0.00  0.00    -0.145 NA
BRANCH  15  19
ATOM     19  C   UNL d   1     -33.412  21.892  22.151  0.00  0.00     0.131 C 
ATOM     20  C   UNL d   1     -33.853  20.512  21.660  0.00  0.00     0.027 C 
ENDBRANCH  15  19
BRANCH  17  21
ATOM     21  C   UNL d   1     -32.551  20.989  24.999  0.00  0.00     0.244 C 
BRANCH  21  22
ATOM     22  O   UNL d   1     -31.972  21.340  26.258  0.00  0.00    -0.393 OA
ATOM     23  H   UNL d   1     -31.169  21.873  26.187  0.00  0.00     0.209 HD
ENDBRANCH  21  22
ENDBRANCH  17  21
ENDBRANCH  10  13
BRANCH   1  24
ATOM     24  C   UNL d   1     -26.249  24.789  24.776  0.00  0.00    -0.057 C 
ATOM     25  C   UNL d   1     -26.099  26.102  24.901  0.00  0.00     0.019 C 
ATOM     26  C   UNL d   1     -27.003  24.014  25.827  0.00  0.00     0.048 C 
ENDBRANCH   1  24
BRANCH   3  27
ATOM     27  C   UNL d   1     -22.465  23.891  21.901  0.00  0.00     0.102 A 
ATOM     28  C   UNL d   1     -21.470  23.359  22.711  0.00  0.00     0.064 A 
ATOM     29  C   UNL d   1     -20.140  23.598  22.415  0.00  0.00     0.026 A 
ATOM     30 CL   UNL d   1     -21.893  22.390  24.087  0.00  0.00    -0.082 Cl
ATOM     31  C   UNL d   1     -19.801  24.376  21.324  0.00  0.00     0.005 A 
ATOM     32  C   UNL d   1     -20.790  24.912  20.518  0.00  0.00     0.045 A 
ATOM     33  C   UNL d   1     -22.122  24.672  20.804  0.00  0.00     0.145 A 
ATOM     34  F   UNL d   1     -23.088  25.195  20.017  0.00  0.00    -0.204 F 
ENDBRANCH   3  27
TORSDOF 6
ENDMDL
