MODEL 1
REMARK VINA RESULT:      -8.7      0.000      0.000
REMARK  7 active torsions:
REMARK  status: ('A' for Active; 'I' for Inactive)
REMARK    1  A    between atoms: C_2  and  N_3 
REMARK    2  A    between atoms: C_4  and  C_5 
REMARK    3  A    between atoms: C_5  and  O_6 
REMARK    4  A    between atoms: N_8  and  C_9 
REMARK    5  A    between atoms: C_12  and  C_13 
REMARK    6  A    between atoms: N_17  and  C_18 
REMARK    7  A    between atoms: C_23  and  O_24 
ROOT
ATOM      1  C   UNL d   1     -28.651  22.237  22.240  0.00  0.00     0.195 A 
ATOM      2  N   UNL d   1     -28.036  23.061  23.071  0.00  0.00    -0.225 NA
ATOM      3  C   UNL d   1     -26.721  23.246  23.007  0.00  0.00     0.083 A 
ATOM      4  C   UNL d   1     -26.025  24.150  23.924  0.00  0.00    -0.009 A 
ATOM      5  C   UNL d   1     -24.695  24.306  23.815  0.00  0.00     0.110 A 
ATOM      6  N   UNL d   1     -23.955  23.650  22.874  0.00  0.00    -0.286 N 
ATOM      7  C   UNL d   1     -24.510  22.799  21.989  0.00  0.00     0.265 A 
ATOM      8  O   UNL d   1     -23.819  22.231  21.163  0.00  0.00    -0.267 OA
ATOM      9  C   UNL d   1     -25.954  22.565  22.032  0.00  0.00     0.065 A 
ATOM     10  C   UNL d   1     -26.592  21.694  21.142  0.00  0.00     0.066 A 
ATOM     11  C   UNL d   1     -27.949  21.536  21.255  0.00  0.00     0.165 A 
ATOM     12  F   UNL d   1     -28.607  20.705  20.417  0.00  0.00    -0.202 F 
ENDROOT
BRANCH   1  13
ATOM     13  N   UNL d   1     -30.029  22.069  22.345  0.00  0.00    -0.159 N 
ATOM     14  N   UNL d   1     -30.957  22.134  21.295  0.00  0.00    -0.145 NA
ATOM     15  C   UNL d   1     -32.136  21.927  21.787  0.00  0.00     0.154 A 
ATOM     16  N   UNL d   1     -32.022  21.724  23.140  0.00  0.00    -0.283 N 
ATOM     17  C   UNL d   1     -30.720  21.813  23.475  0.00  0.00     0.352 A 
ATOM     18  O   UNL d   1     -30.253  21.690  24.593  0.00  0.00    -0.244 OA
BRANCH  15  19
ATOM     19  C   UNL d   1     -33.422  21.911  21.002  0.00  0.00     0.244 C 
BRANCH  19  20
ATOM     20  O   UNL d   1     -33.827  20.559  20.779  0.00  0.00    -0.393 OA
ATOM     21  H   UNL d   1     -34.774  20.455  20.607  0.00  0.00     0.209 HD
ENDBRANCH  19  20
ENDBRANCH  15  19
BRANCH  16  22
ATOM     22  C   UNL d   1     -33.129  21.456  24.062  0.00  0.00     0.131 C 
ATOM     23  C   UNL d   1     -33.165  19.962  24.394  0.00  0.00     0.027 C 
ENDBRANCH  16  22
ENDBRANCH   1  13
BRANCH   4  24
ATOM     24  C   UNL d   1     -26.794  24.900  24.981  0.00  0.00     0.014 C 
ATOM     25  C   UNL d   1     -27.052  23.979  26.175  0.00  0.00     0.015 C 
ATOM     26  C   UNL d   1     -25.982  26.113  25.439  0.00  0.00     0.015 C 
ENDBRANCH   4  24
BRANCH   6  27
ATOM     27  C   UNL d   1     -22.571  23.869  22.827  0.00  0.00     0.075 A 
ATOM     28  C   UNL d   1     -22.015  24.598  21.778  0.00  0.00     0.095 A 
ATOM     29  C   UNL d   1     -20.647  24.812  21.737  0.00  0.00     0.039 A 
ATOM     30  C   UNL d   1     -19.836  24.301  22.732  0.00  0.00     0.003 A 
ATOM     31  C   UNL d   1     -20.388  23.575  23.774  0.00  0.00     0.002 A 
ATOM     32  C   UNL d   1     -21.752  23.364  23.826  0.00  0.00     0.033 A 
BRANCH  28  33
ATOM     33  O   UNL d   1     -22.813  25.100  20.799  0.00  0.00    -0.354 OA
ATOM     34  C   UNL d   1     -22.310  25.048  19.462  0.00  0.00     0.210 C 
ENDBRANCH  28  33
ENDBRANCH   6  27
TORSDOF 7
ENDMDL
