MODEL 1
REMARK VINA RESULT:      -7.4      0.000      0.000
REMARK  4 active torsions:
REMARK  status: ('A' for Active; 'I' for Inactive)
REMARK    1  A    between atoms: C_2  and  C_3 
REMARK    2  A    between atoms: C_7  and  C_8 
REMARK    3  A    between atoms: C_8  and  S_9 
REMARK    4  A    between atoms: N_10  and  C_11 
ROOT
ATOM      1  C   UNL d   1     -24.029  22.827  22.788  0.00  0.00     0.058 A 
ATOM      2  C   UNL d   1     -24.982  23.439  23.610  0.00  0.00     0.033 A 
ATOM      3  C   UNL d   1     -26.310  23.183  23.424  0.00  0.00     0.025 A 
ATOM      4  C   UNL d   1     -26.718  22.309  22.411  0.00  0.00     0.044 A 
ATOM      5  C   UNL d   1     -28.112  22.041  22.215  0.00  0.00     0.099 C 
ATOM      6  N   UNL d   1     -29.216  21.828  22.059  0.00  0.00    -0.191 NA
ATOM      7  C   UNL d   1     -25.765  21.692  21.593  0.00  0.00     0.025 A 
ATOM      8  C   UNL d   1     -24.438  21.951  21.775  0.00  0.00     0.033 A 
ENDROOT
BRANCH   1   9
ATOM      9  N   UNL d   1     -22.703  23.083  22.973  0.00  0.00    -0.241 NA
ATOM     10  C   UNL d   1     -22.102  24.001  22.246  0.00  0.00     0.105 C 
BRANCH  10  11
ATOM     11  C   UNL d   1     -20.667  24.277  22.446  0.00  0.00     0.051 A 
ATOM     12  C   UNL d   1     -20.059  24.876  23.520  0.00  0.00     0.093 A 
ATOM     13  O   UNL d   1     -18.751  24.901  23.242  0.00  0.00    -0.217 OA
ATOM     14  N   UNL d   1     -18.509  24.413  22.164  0.00  0.00    -0.140 NA
ATOM     15  C   UNL d   1     -19.582  23.989  21.566  0.00  0.00     0.163 A 
BRANCH  12  16
ATOM     16  C   UNL d   1     -20.731  25.399  24.764  0.00  0.00     0.064 C 
ATOM     17  C   UNL d   1     -21.374  26.755  24.466  0.00  0.00     0.012 C 
ENDBRANCH  12  16
ENDBRANCH  10  11
BRANCH  10  18
ATOM     18  S   UNL d   1     -23.011  24.900  21.034  0.00  0.00    -0.122 SA
ATOM     19  H   UNL d   1     -24.187  25.174  21.762  0.00  0.00     0.108 HD
ENDBRANCH  10  18
ENDBRANCH   1   9
TORSDOF 4
ENDMDL
