MODEL 1
REMARK VINA RESULT:      -9.5      0.000      0.000
REMARK  10 active torsions:
REMARK  status: ('A' for Active; 'I' for Inactive)
REMARK    1  A    between atoms: C_2  and  N_3 
REMARK    2  A    between atoms: C_4  and  C_5 
REMARK    3  A    between atoms: C_5  and  O_6 
REMARK    4  A    between atoms: N_8  and  C_9 
REMARK    5  A    between atoms: C_11  and  O_12 
REMARK    6  A    between atoms: O_12  and  C_13 
REMARK    7  A    between atoms: C_13  and  C_15 
REMARK    8  A    between atoms: C_19  and  C_20 
REMARK       I    between atoms: C_20  and  N_22 
REMARK    9  A    between atoms: N_22  and  C_23 
REMARK   10  A    between atoms: C_29  and  O_30 
ROOT
ATOM      1  C   UNL d   1     -26.648  23.453  23.750  0.00  0.00     0.104 A 
ATOM      2  C   UNL d   1     -25.730  22.949  22.837  0.00  0.00     0.073 A 
ATOM      3  C   UNL d   1     -24.468  23.509  22.744  0.00  0.00     0.087 A 
ATOM      4  C   UNL d   1     -24.118  24.585  23.573  0.00  0.00     0.068 A 
ATOM      5  C   UNL d   1     -25.047  25.083  24.494  0.00  0.00     0.064 A 
ATOM      6  C   UNL d   1     -26.302  24.522  24.575  0.00  0.00     0.146 A 
ATOM      7  F   UNL d   1     -27.200  25.008  25.461  0.00  0.00    -0.204 F 
ENDROOT
BRANCH   4   8
ATOM      8  C   UNL d   1     -22.777  25.186  23.480  0.00  0.00     0.259 C 
ATOM      9  O   UNL d   1     -22.581  26.121  22.726  0.00  0.00    -0.267 OA
ATOM     10  N   UNL d   1     -21.767  24.700  24.227  0.00  0.00    -0.319 N 
ATOM     11  H   UNL d   1     -21.901  23.905  24.766  0.00  0.00     0.169 HD
BRANCH  10  12
ATOM     12  C   UNL d   1     -20.524  25.344  24.229  0.00  0.00     0.094 A 
ATOM     13  C   UNL d   1     -19.505  24.919  23.376  0.00  0.00     0.191 A 
ATOM     14  N   UNL d   1     -18.332  25.526  23.375  0.00  0.00    -0.235 NA
ATOM     15  C   UNL d   1     -18.079  26.548  24.172  0.00  0.00     0.120 A 
ATOM     16  C   UNL d   1     -19.040  27.028  25.040  0.00  0.00     0.028 A 
ATOM     17  C   UNL d   1     -20.286  26.419  25.079  0.00  0.00    -0.029 A 
ATOM     18  C   UNL d   1     -21.357  26.912  26.016  0.00  0.00     0.050 C 
BRANCH  13  19
ATOM     19  O   UNL d   1     -19.721  23.872  22.540  0.00  0.00    -0.338 OA
ATOM     20  C   UNL d   1     -19.325  24.038  21.176  0.00  0.00     0.211 C 
ENDBRANCH  13  19
ENDBRANCH  10  12
ENDBRANCH   4   8
BRANCH   3  21
ATOM     21  O   UNL d   1     -23.571  23.017  21.852  0.00  0.00    -0.336 OA
BRANCH  21  22
ATOM     22  C   UNL d   1     -23.830  23.262  20.469  0.00  0.00     0.232 C 
ATOM     23  C   UNL d   1     -22.521  23.619  19.761  0.00  0.00     0.049 C 
BRANCH  22  24
ATOM     24  C   UNL d   1     -24.428  22.007  19.832  0.00  0.00     0.413 C 
ATOM     25  F   UNL d   1     -23.825  21.783  18.589  0.00  0.00    -0.168 F 
ATOM     26  F   UNL d   1     -24.199  20.907  20.666  0.00  0.00    -0.168 F 
ATOM     27  F   UNL d   1     -25.805  22.182  19.658  0.00  0.00    -0.168 F 
ENDBRANCH  22  24
ENDBRANCH  21  22
ENDBRANCH   3  21
BRANCH   1  28
ATOM     28  N   UNL d   1     -27.921  22.886  23.841  0.00  0.00    -0.178 N 
ATOM     29  N   UNL d   1     -28.973  23.058  22.932  0.00  0.00    -0.147 NA
ATOM     30  C   UNL d   1     -29.988  22.375  23.356  0.00  0.00     0.154 A 
ATOM     31  N   UNL d   1     -29.642  21.750  24.528  0.00  0.00    -0.283 N 
ATOM     32  C   UNL d   1     -28.363  22.067  24.817  0.00  0.00     0.351 A 
ATOM     33  O   UNL d   1     -27.727  21.685  25.783  0.00  0.00    -0.244 OA
BRANCH  30  34
ATOM     34  C   UNL d   1     -31.330  22.282  22.675  0.00  0.00     0.244 C 
BRANCH  34  35
ATOM     35  O   UNL d   1     -31.154  22.382  21.260  0.00  0.00    -0.393 OA
ATOM     36  H   UNL d   1     -31.926  22.725  20.792  0.00  0.00     0.209 HD
ENDBRANCH  34  35
ENDBRANCH  30  34
BRANCH  31  37
ATOM     37  C   UNL d   1     -30.511  20.882  25.327  0.00  0.00     0.131 C 
ATOM     38  C   UNL d   1     -31.700  21.691  25.848  0.00  0.00     0.027 C 
ENDBRANCH  31  37
ENDBRANCH   1  28
TORSDOF 10
ENDMDL
