MODEL 1
REMARK VINA RESULT:     -12.6      0.000      0.000
REMARK  4 active torsions:
REMARK  status: ('A' for Active; 'I' for Inactive)
REMARK    1  A    between atoms: C_7  and  C_8 
REMARK       I    between atoms: C_8  and  N_10 
REMARK    2  A    between atoms: N_10  and  C_11 
REMARK    3  A    between atoms: C_16  and  C_17 
REMARK    4  A    between atoms: C_27  and  O_28 
ROOT
ATOM      1  C   UNL d   1     -26.629  22.745  23.444  0.00  0.00     0.119 A 
ATOM      2  C   UNL d   1     -26.019  23.907  23.901  0.00  0.00     0.185 A 
ATOM      3  F   UNL d   1     -26.604  24.637  24.876  0.00  0.00    -0.200 F 
ATOM      4  C   UNL d   1     -24.812  24.315  23.363  0.00  0.00     0.171 A 
ATOM      5  F   UNL d   1     -24.217  25.441  23.812  0.00  0.00    -0.202 F 
ATOM      6  C   UNL d   1     -24.212  23.562  22.352  0.00  0.00     0.058 A 
ATOM      7  C   UNL d   1     -24.828  22.399  21.891  0.00  0.00     0.171 A 
ATOM      8  F   UNL d   1     -24.250  21.669  20.912  0.00  0.00    -0.202 F 
ATOM      9  C   UNL d   1     -26.032  21.993  22.437  0.00  0.00     0.185 A 
ATOM     10  F   UNL d   1     -26.631  20.867  21.991  0.00  0.00    -0.200 F 
ENDROOT
BRANCH   1  11
ATOM     11  N   UNL d   1     -27.847  22.331  23.994  0.00  0.00    -0.317 N 
ATOM     12  C   UNL d   1     -28.996  22.528  23.317  0.00  0.00     0.263 C 
ATOM     13  O   UNL d   1     -28.985  23.147  22.269  0.00  0.00    -0.267 OA
ATOM     14  H   UNL d   1     -27.865  21.901  24.864  0.00  0.00     0.169 HD
BRANCH  12  15
ATOM     15  C   UNL d   1     -30.255  21.999  23.842  0.00  0.00     0.115 A 
ATOM     16  C   UNL d   1     -31.453  21.812  23.123  0.00  0.00     0.078 A 
ATOM     17  C   UNL d   1     -31.807  22.043  21.787  0.00  0.00     0.033 A 
ATOM     18  N   UNL d   1     -32.370  21.307  23.999  0.00  0.00    -0.235 N 
ATOM     19  C   UNL d   1     -33.075  21.757  21.373  0.00  0.00     0.004 A 
ATOM     20  C   UNL d   1     -33.998  21.237  22.292  0.00  0.00     0.027 A 
ATOM     21  C   UNL d   1     -33.633  21.022  23.577  0.00  0.00     0.033 A 
ATOM     22  C   UNL d   1     -34.637  20.465  24.553  0.00  0.00     0.070 C 
ATOM     23  N   UNL d   1     -31.751  21.180  25.248  0.00  0.00    -0.141 NA
ATOM     24  C   UNL d   1     -30.507  21.585  25.167  0.00  0.00     0.200 A 
BRANCH  24  25
ATOM     25  O   UNL d   1     -29.610  21.603  26.186  0.00  0.00    -0.343 OA
ATOM     26  H   UNL d   1     -29.591  22.436  26.677  0.00  0.00     0.219 HD
ENDBRANCH  24  25
ENDBRANCH  12  15
ENDBRANCH   1  11
BRANCH   6  27
ATOM     27  C   UNL d   1     -22.921  24.000  21.768  0.00  0.00    -0.020 A 
ATOM     28  C   UNL d   1     -22.895  24.650  20.535  0.00  0.00     0.012 A 
ATOM     29  C   UNL d   1     -21.690  25.056  19.997  0.00  0.00     0.001 A 
ATOM     30  C   UNL d   1     -20.510  24.819  20.679  0.00  0.00     0.000 A 
ATOM     31  C   UNL d   1     -20.530  24.175  21.904  0.00  0.00     0.001 A 
ATOM     32  C   UNL d   1     -21.729  23.770  22.453  0.00  0.00     0.012 A 
ENDBRANCH   6  27
TORSDOF 4
ENDMDL
