MODEL 1
REMARK VINA RESULT:     -11.5      0.000      0.000
REMARK  7 active torsions:
REMARK  status: ('A' for Active; 'I' for Inactive)
REMARK    1  A    between atoms: C_2  and  O_3 
REMARK    2  A    between atoms: C_2  and  C_4 
REMARK    3  A    between atoms: C_5  and  C_6 
REMARK       I    between atoms: C_6  and  N_8 
REMARK    4  A    between atoms: N_8  and  C_9 
REMARK    5  A    between atoms: C_12  and  C_13 
REMARK    6  A    between atoms: C_17  and  O_18 
REMARK    7  A    between atoms: O_18  and  C_19 
ROOT
ATOM      1  C   UNL d   1     -26.025  23.064  23.653  0.00  0.00     0.057 A 
ATOM      2  C   UNL d   1     -26.699  23.376  24.829  0.00  0.00     0.032 A 
ATOM      3  C   UNL d   1     -28.008  22.981  25.000  0.00  0.00     0.014 A 
ATOM      4  C   UNL d   1     -28.659  22.270  23.993  0.00  0.00    -0.024 A 
ATOM      5  C   UNL d   1     -27.983  21.959  22.814  0.00  0.00     0.038 A 
ATOM      6  C   UNL d   1     -26.670  22.350  22.649  0.00  0.00     0.061 A 
ATOM      7 CL   UNL d   1     -25.825  21.956  21.184  0.00  0.00    -0.082 Cl
ENDROOT
BRANCH   1   8
ATOM      8  N   UNL d   1     -24.698  23.465  23.482  0.00  0.00    -0.322 N 
ATOM      9  C   UNL d   1     -24.394  24.775  23.403  0.00  0.00     0.253 C 
ATOM     10  O   UNL d   1     -25.258  25.611  23.582  0.00  0.00    -0.268 OA
ATOM     11  H   UNL d   1     -23.995  22.799  23.421  0.00  0.00     0.169 HD
BRANCH   9  12
ATOM     12  C   UNL d   1     -23.012  25.196  23.100  0.00  0.00     0.023 C 
ATOM     13  C   UNL d   1     -22.372  24.943  21.950  0.00  0.00     0.027 C 
ATOM     14  C   UNL d   1     -20.976  25.519  21.983  0.00  0.00     0.046 C 
ATOM     15  C   UNL d   1     -20.694  25.794  23.478  0.00  0.00     0.010 C 
ATOM     16  C   UNL d   1     -22.123  25.976  24.041  0.00  0.00     0.045 C 
BRANCH  13  17
ATOM     17  C   UNL d   1     -22.951  24.207  20.810  0.00  0.00     0.172 C 
ATOM     18  O   UNL d   1     -23.150  23.012  20.898  0.00  0.00    -0.646 OA
BRANCH  17  19
ATOM     19  O   UNL d   1     -23.259  24.860  19.673  0.00  0.00    -0.773 OA
ATOM     20  H   UNL d   1     -23.928  24.457  19.102  0.00  0.00     0.167 HD
ENDBRANCH  17  19
ENDBRANCH  13  17
ENDBRANCH   9  12
ENDBRANCH   1   8
BRANCH   4  21
ATOM     21  C   UNL d   1     -30.068  21.844  24.176  0.00  0.00    -0.023 A 
ATOM     22  C   UNL d   1     -31.058  22.319  23.319  0.00  0.00     0.049 A 
ATOM     23  C   UNL d   1     -32.372  21.917  23.496  0.00  0.00     0.079 A 
ATOM     24  C   UNL d   1     -32.699  21.043  24.523  0.00  0.00     0.037 A 
ATOM     25  C   UNL d   1     -31.716  20.570  25.373  0.00  0.00     0.004 A 
ATOM     26  C   UNL d   1     -30.403  20.962  25.202  0.00  0.00     0.012 A 
BRANCH  23  27
ATOM     27  O   UNL d   1     -33.341  22.378  22.662  0.00  0.00    -0.255 OA
BRANCH  27  28
ATOM     28  C   UNL d   1     -33.440  21.759  21.378  0.00  0.00     0.530 C 
ATOM     29  F   UNL d   1     -34.431  22.400  20.626  0.00  0.00    -0.144 F 
ATOM     30  F   UNL d   1     -32.212  21.858  20.714  0.00  0.00    -0.144 F 
ATOM     31  F   UNL d   1     -33.776  20.410  21.536  0.00  0.00    -0.144 F 
ENDBRANCH  27  28
ENDBRANCH  23  27
ENDBRANCH   4  21
TORSDOF 7
ENDMDL
