MODEL 1
REMARK VINA RESULT:     -10.9      0.000      0.000
REMARK  7 active torsions:
REMARK  status: ('A' for Active; 'I' for Inactive)
REMARK    1  A    between atoms: C_2  and  O_3 
REMARK    2  A    between atoms: C_2  and  C_4 
REMARK    3  A    between atoms: C_5  and  C_6 
REMARK       I    between atoms: C_6  and  N_8 
REMARK    4  A    between atoms: N_8  and  C_9 
REMARK    5  A    between atoms: C_12  and  O_13 
REMARK    6  A    between atoms: O_13  and  C_14 
REMARK    7  A    between atoms: C_14  and  C_15 
ROOT
ATOM      1  C   UNL d   1     -27.544  22.092  23.080  0.00  0.00     0.036 A 
ATOM      2  C   UNL d   1     -26.979  22.958  24.009  0.00  0.00     0.032 A 
ATOM      3  C   UNL d   1     -25.666  23.359  23.869  0.00  0.00     0.041 A 
ATOM      4  C   UNL d   1     -24.911  22.902  22.799  0.00  0.00     0.091 A 
ATOM      5  C   UNL d   1     -25.471  22.033  21.873  0.00  0.00     0.069 A 
ATOM      6 CL   UNL d   1     -24.524  21.457  20.538  0.00  0.00    -0.081 Cl
ATOM      7  C   UNL d   1     -26.786  21.630  22.013  0.00  0.00     0.056 A 
ENDROOT
BRANCH   1   8
ATOM      8  N   UNL d   1     -28.876  21.686  23.222  0.00  0.00    -0.323 N 
ATOM      9  C   UNL d   1     -29.863  22.409  22.660  0.00  0.00     0.255 C 
ATOM     10  O   UNL d   1     -29.594  23.366  21.961  0.00  0.00    -0.268 OA
ATOM     11  H   UNL d   1     -29.087  20.883  23.724  0.00  0.00     0.169 HD
BRANCH   9  12
ATOM     12  C   UNL d   1     -31.273  22.038  22.894  0.00  0.00     0.048 C 
ATOM     13  C   UNL d   1     -31.800  21.616  24.059  0.00  0.00     0.052 C 
ATOM     14  C   UNL d   1     -33.272  21.354  23.834  0.00  0.00     0.214 C 
ATOM     15  O   UNL d   1     -33.612  22.036  22.612  0.00  0.00    -0.382 OA
ATOM     16  C   UNL d   1     -32.381  22.058  21.866  0.00  0.00     0.213 C 
BRANCH  13  17
ATOM     17  C   UNL d   1     -31.072  21.443  25.331  0.00  0.00     0.174 C 
ATOM     18  O   UNL d   1     -31.331  22.155  26.280  0.00  0.00    -0.646 OA
BRANCH  17  19
ATOM     19  O   UNL d   1     -30.118  20.497  25.438  0.00  0.00    -0.773 OA
ATOM     20  H   UNL d   1     -30.390  19.581  25.294  0.00  0.00     0.167 HD
ENDBRANCH  17  19
ENDBRANCH  13  17
ENDBRANCH   9  12
ENDBRANCH   1   8
BRANCH   4  21
ATOM     21  O   UNL d   1     -23.618  23.302  22.659  0.00  0.00    -0.345 OA
BRANCH  21  22
ATOM     22  C   UNL d   1     -23.397  24.578  22.053  0.00  0.00     0.219 C 
BRANCH  22  23
ATOM     23  C   UNL d   1     -22.592  25.445  22.989  0.00  0.00     0.026 A 
ATOM     24  C   UNL d   1     -21.223  25.277  23.081  0.00  0.00     0.045 A 
ATOM     25  C   UNL d   1     -20.485  26.074  23.939  0.00  0.00     0.024 A 
ATOM     26 CL   UNL d   1     -20.430  24.068  22.120  0.00  0.00    -0.084 Cl
ATOM     27  C   UNL d   1     -21.116  27.035  24.705  0.00  0.00     0.005 A 
ATOM     28  C   UNL d   1     -22.485  27.204  24.614  0.00  0.00     0.043 A 
ATOM     29  C   UNL d   1     -23.224  26.413  23.751  0.00  0.00     0.126 A 
ATOM     30  F   UNL d   1     -24.561  26.581  23.657  0.00  0.00    -0.205 F 
ENDBRANCH  22  23
ENDBRANCH  21  22
ENDBRANCH   4  21
TORSDOF 7
ENDMDL
