MODEL 1
REMARK VINA RESULT:      -9.9      0.000      0.000
REMARK  7 active torsions:
REMARK  status: ('A' for Active; 'I' for Inactive)
REMARK    1  A    between atoms: C_2  and  O_3 
REMARK    2  A    between atoms: C_2  and  C_4 
REMARK    3  A    between atoms: C_7  and  C_8 
REMARK    4  A    between atoms: C_13  and  C_14 
REMARK    5  A    between atoms: C_21  and  O_22 
REMARK    6  A    between atoms: C_23  and  C_24 
REMARK    7  A    between atoms: C_24  and  O_26 
ROOT
ATOM      1  C   UNL d   1     -23.353  24.812  23.436  0.00  0.00    -0.025 A 
ATOM      2  C   UNL d   1     -24.251  25.532  24.242  0.00  0.00     0.014 A 
ATOM      3  C   UNL d   1     -25.560  25.176  24.320  0.00  0.00     0.033 A 
ATOM      4  C   UNL d   1     -26.035  24.072  23.585  0.00  0.00     0.069 A 
ATOM      5  N   UNL d   1     -27.320  23.714  23.647  0.00  0.00    -0.245 NA
ATOM      6  C   UNL d   1     -27.802  22.688  22.981  0.00  0.00     0.102 A 
ATOM      7  C   UNL d   1     -26.996  21.892  22.141  0.00  0.00     0.113 A 
ATOM      8  C   UNL d   1     -25.640  22.195  22.011  0.00  0.00     0.085 A 
ATOM      9  C   UNL d   1     -25.134  23.343  22.771  0.00  0.00     0.013 A 
ATOM     10  C   UNL d   1     -23.791  23.721  22.702  0.00  0.00     0.027 A 
ENDROOT
BRANCH   1  11
ATOM     11  C   UNL d   1     -21.931  25.222  23.371  0.00  0.00    -0.026 A 
ATOM     12  C   UNL d   1     -21.139  24.820  22.293  0.00  0.00     0.013 A 
ATOM     13  C   UNL d   1     -19.818  25.200  22.231  0.00  0.00     0.019 A 
ATOM     14  C   UNL d   1     -19.269  25.989  23.248  0.00  0.00     0.037 A 
ATOM     15  C   UNL d   1     -20.064  26.389  24.325  0.00  0.00     0.019 A 
ATOM     16  C   UNL d   1     -21.386  26.013  24.382  0.00  0.00     0.013 A 
BRANCH  14  17
ATOM     17  C   UNL d   1     -17.851  26.395  23.182  0.00  0.00     0.176 C 
ATOM     18  O   UNL d   1     -17.444  27.293  23.891  0.00  0.00    -0.646 OA
BRANCH  17  19
ATOM     19  O   UNL d   1     -17.010  25.769  22.337  0.00  0.00    -0.773 OA
ATOM     20  H   UNL d   1     -16.549  24.989  22.673  0.00  0.00     0.167 HD
ENDBRANCH  17  19
ENDBRANCH  14  17
ENDBRANCH   1  11
BRANCH   8  21
ATOM     21  C   UNL d   1     -24.755  21.397  21.147  0.00  0.00     0.180 C 
ATOM     22  O   UNL d   1     -24.380  21.844  20.081  0.00  0.00    -0.646 OA
BRANCH  21  23
ATOM     23  O   UNL d   1     -24.360  20.169  21.538  0.00  0.00    -0.773 OA
ATOM     24  H   UNL d   1     -24.948  19.431  21.327  0.00  0.00     0.167 HD
ENDBRANCH  21  23
ENDBRANCH   8  21
BRANCH   7  25
ATOM     25  O   UNL d   1     -27.531  20.846  21.467  0.00  0.00    -0.357 OA
ATOM     26  H   UNL d   1     -27.132  19.992  21.683  0.00  0.00     0.217 HD
ENDBRANCH   7  25
BRANCH   6  27
ATOM     27  C   UNL d   1     -29.240  22.360  23.116  0.00  0.00    -0.004 A 
ATOM     28  C   UNL d   1     -29.734  21.854  24.317  0.00  0.00     0.015 A 
ATOM     29  C   UNL d   1     -31.074  21.550  24.436  0.00  0.00     0.024 A 
ATOM     30  C   UNL d   1     -31.929  21.747  23.364  0.00  0.00     0.034 A 
ATOM     31  C   UNL d   1     -31.444  22.250  22.170  0.00  0.00     0.024 A 
ATOM     32 CL   UNL d   1     -33.615  21.364  23.521  0.00  0.00    -0.084 Cl
ATOM     33  C   UNL d   1     -30.105  22.552  22.038  0.00  0.00     0.015 A 
ENDBRANCH   6  27
TORSDOF 7
ENDMDL
