MODEL 1
REMARK VINA RESULT:      -8.2      0.000      0.000
REMARK  7 active torsions:
REMARK  status: ('A' for Active; 'I' for Inactive)
REMARK    1  A    between atoms: C_2  and  C_3 
REMARK    2  A    between atoms: N_5  and  C_6 
REMARK    3  A    between atoms: C_8  and  O_9 
REMARK    4  A    between atoms: O_9  and  C_10 
REMARK    5  A    between atoms: C_10  and  C_12 
REMARK    6  A    between atoms: C_18  and  C_19 
REMARK       I    between atoms: C_19  and  N_21 
REMARK    7  A    between atoms: N_21  and  C_22 
ROOT
ATOM      1  C   UNL d   1     -21.243  24.187  22.298  0.00  0.00     0.104 A 
ATOM      2  C   UNL d   1     -21.392  24.731  23.566  0.00  0.00     0.073 A 
ATOM      3  C   UNL d   1     -20.308  25.306  24.205  0.00  0.00     0.087 A 
ATOM      4  C   UNL d   1     -19.060  25.344  23.566  0.00  0.00     0.068 A 
ATOM      5  C   UNL d   1     -18.916  24.789  22.290  0.00  0.00     0.064 A 
ATOM      6  C   UNL d   1     -20.001  24.217  21.663  0.00  0.00     0.146 A 
ATOM      7  F   UNL d   1     -19.862  23.686  20.428  0.00  0.00    -0.204 F 
ENDROOT
BRANCH   4   8
ATOM      8  C   UNL d   1     -17.903  25.960  24.238  0.00  0.00     0.254 C 
ATOM      9  O   UNL d   1     -17.492  27.043  23.869  0.00  0.00    -0.268 OA
ATOM     10  N   UNL d   1     -17.302  25.325  25.263  0.00  0.00    -0.352 N 
ATOM     11  H   UNL d   1     -17.630  24.461  25.558  0.00  0.00     0.163 HD
BRANCH  10  12
ATOM     12  C   UNL d   1     -16.151  25.938  25.931  0.00  0.00     0.088 C 
ATOM     13  C   UNL d   1     -16.574  26.451  27.312  0.00  0.00     0.051 C 
ATOM     14  C   UNL d   1     -15.348  27.019  28.033  0.00  0.00     0.169 C 
ATOM     15  O   UNL d   1     -14.345  26.006  28.133  0.00  0.00    -0.391 OA
ATOM     16  C   UNL d   1     -13.877  25.522  26.872  0.00  0.00     0.169 C 
ATOM     17  C   UNL d   1     -15.043  24.895  26.104  0.00  0.00     0.051 C 
ENDBRANCH  10  12
ENDBRANCH   4   8
BRANCH   3  18
ATOM     18  O   UNL d   1     -20.453  25.837  25.446  0.00  0.00    -0.345 OA
BRANCH  18  19
ATOM     19  C   UNL d   1     -20.588  27.258  25.532  0.00  0.00     0.129 C 
ATOM     20  C   UNL d   1     -22.028  27.654  25.204  0.00  0.00     0.040 C 
BRANCH  19  21
ATOM     21  C   UNL d   1     -20.242  27.717  26.950  0.00  0.00     0.015 C 
ATOM     22  C   UNL d   1     -21.281  28.735  27.424  0.00  0.00     0.007 C 
ATOM     23  C   UNL d   1     -20.934  29.195  28.842  0.00  0.00     0.000 C 
ATOM     24  C   UNL d   1     -20.935  27.990  29.783  0.00  0.00     0.000 C 
ATOM     25  C   UNL d   1     -19.896  26.972  29.310  0.00  0.00     0.000 C 
ATOM     26  C   UNL d   1     -20.242  26.512  27.892  0.00  0.00     0.007 C 
ENDBRANCH  19  21
ENDBRANCH  18  19
ENDBRANCH   3  18
BRANCH   1  27
ATOM     27  N   UNL d   1     -22.338  23.607  21.655  0.00  0.00    -0.178 N 
ATOM     28  N   UNL d   1     -23.151  22.583  22.160  0.00  0.00    -0.149 NA
ATOM     29  C   UNL d   1     -24.058  22.315  21.275  0.00  0.00     0.130 A 
ATOM     30  N   UNL d   1     -23.873  23.135  20.189  0.00  0.00    -0.289 N 
ATOM     31  C   UNL d   1     -22.813  23.931  20.435  0.00  0.00     0.351 A 
ATOM     32  C   UNL d   1     -24.692  23.147  18.974  0.00  0.00     0.162 C 
ATOM     33  O   UNL d   1     -22.365  24.785  19.690  0.00  0.00    -0.244 OA
BRANCH  29  34
ATOM     34  C   UNL d   1     -25.140  21.275  21.415  0.00  0.00     0.076 C 
ATOM     35  C   UNL d   1     -26.363  21.899  22.091  0.00  0.00     0.013 C 
ENDBRANCH  29  34
ENDBRANCH   1  27
TORSDOF 7
ENDMDL
