MODEL 1
REMARK VINA RESULT:      -7.8      0.000      0.000
REMARK  3 active torsions:
REMARK  status: ('A' for Active; 'I' for Inactive)
REMARK    1  A    between atoms: C_6  and  C_7 
REMARK    2  A    between atoms: C_7  and  S_8 
REMARK    3  A    between atoms: N_9  and  C_10 
ROOT
ATOM      1  C   UNL d   1     -27.928  22.649  23.601  0.00  0.00     0.058 A 
ATOM      2  C   UNL d   1     -28.304  21.966  24.764  0.00  0.00     0.033 A 
ATOM      3  C   UNL d   1     -29.597  21.564  24.931  0.00  0.00     0.025 A 
ATOM      4  C   UNL d   1     -30.548  21.836  23.941  0.00  0.00     0.044 A 
ATOM      5  C   UNL d   1     -31.905  21.415  24.117  0.00  0.00     0.099 C 
ATOM      6  N   UNL d   1     -32.983  21.081  24.256  0.00  0.00    -0.191 NA
ATOM      7  C   UNL d   1     -30.171  22.515  22.776  0.00  0.00     0.025 A 
ATOM      8  C   UNL d   1     -28.879  22.921  22.611  0.00  0.00     0.033 A 
ENDROOT
BRANCH   1   9
ATOM      9  N   UNL d   1     -26.635  23.051  23.435  0.00  0.00    -0.241 NA
ATOM     10  C   UNL d   1     -25.893  22.505  22.494  0.00  0.00     0.105 C 
BRANCH  10  11
ATOM     11  C   UNL d   1     -24.495  22.939  22.313  0.00  0.00     0.050 A 
ATOM     12  C   UNL d   1     -23.783  23.043  21.146  0.00  0.00     0.089 A 
ATOM     13  C   UNL d   1     -24.273  22.732  19.756  0.00  0.00     0.080 C 
ATOM     14  O   UNL d   1     -22.565  23.478  21.490  0.00  0.00    -0.218 OA
ATOM     15  N   UNL d   1     -22.462  23.635  22.683  0.00  0.00    -0.140 NA
ATOM     16  C   UNL d   1     -23.561  23.344  23.312  0.00  0.00     0.163 A 
ENDBRANCH  10  11
BRANCH  10  17
ATOM     17  S   UNL d   1     -26.570  21.257  21.450  0.00  0.00    -0.122 SA
ATOM     18  H   UNL d   1     -25.523  21.126  20.515  0.00  0.00     0.108 HD
ENDBRANCH  10  17
ENDBRANCH   1   9
TORSDOF 3
ENDMDL
