MODEL 1
REMARK VINA RESULT:     -11.4      0.000      0.000
REMARK  7 active torsions:
REMARK  status: ('A' for Active; 'I' for Inactive)
REMARK    1  A    between atoms: C_2  and  O_3 
REMARK    2  A    between atoms: C_2  and  C_4 
REMARK    3  A    between atoms: C_5  and  C_6 
REMARK       I    between atoms: C_6  and  N_8 
REMARK    4  A    between atoms: N_8  and  C_9 
REMARK    5  A    between atoms: C_12  and  C_13 
REMARK    6  A    between atoms: C_17  and  O_18 
REMARK    7  A    between atoms: O_18  and  C_19 
ROOT
ATOM      1  C   UNL d   1     -26.135  23.000  23.719  0.00  0.00     0.074 A 
ATOM      2  C   UNL d   1     -26.751  23.152  24.956  0.00  0.00     0.034 A 
ATOM      3  C   UNL d   1     -28.056  22.746  25.133  0.00  0.00     0.014 A 
ATOM      4  C   UNL d   1     -28.761  22.183  24.071  0.00  0.00    -0.023 A 
ATOM      5  C   UNL d   1     -28.144  22.031  22.830  0.00  0.00     0.057 A 
ATOM      6  C   UNL d   1     -26.835  22.433  22.658  0.00  0.00     0.143 A 
ATOM      7  F   UNL d   1     -26.234  22.280  21.457  0.00  0.00    -0.204 F 
ENDROOT
BRANCH   1   8
ATOM      8  N   UNL d   1     -24.812  23.412  23.542  0.00  0.00    -0.321 N 
ATOM      9  C   UNL d   1     -24.525  24.724  23.423  0.00  0.00     0.253 C 
ATOM     10  O   UNL d   1     -25.402  25.553  23.571  0.00  0.00    -0.268 OA
ATOM     11  H   UNL d   1     -24.100  22.755  23.504  0.00  0.00     0.169 HD
BRANCH   9  12
ATOM     12  C   UNL d   1     -23.148  25.153  23.112  0.00  0.00     0.023 C 
ATOM     13  C   UNL d   1     -22.499  24.873  21.974  0.00  0.00     0.027 C 
ATOM     14  C   UNL d   1     -21.110  25.468  21.995  0.00  0.00     0.046 C 
ATOM     15  C   UNL d   1     -20.840  25.794  23.481  0.00  0.00     0.010 C 
ATOM     16  C   UNL d   1     -22.275  25.976  24.031  0.00  0.00     0.045 C 
BRANCH  13  17
ATOM     17  C   UNL d   1     -23.061  24.091  20.857  0.00  0.00     0.172 C 
ATOM     18  O   UNL d   1     -23.289  22.906  20.998  0.00  0.00    -0.646 OA
BRANCH  17  19
ATOM     19  O   UNL d   1     -23.324  24.691  19.679  0.00  0.00    -0.773 OA
ATOM     20  H   UNL d   1     -24.026  24.306  19.137  0.00  0.00     0.167 HD
ENDBRANCH  17  19
ENDBRANCH  13  17
ENDBRANCH   9  12
ENDBRANCH   1   8
BRANCH   4  21
ATOM     21  C   UNL d   1     -30.165  21.746  24.261  0.00  0.00    -0.023 A 
ATOM     22  C   UNL d   1     -31.172  22.256  23.445  0.00  0.00     0.049 A 
ATOM     23  C   UNL d   1     -32.482  21.843  23.627  0.00  0.00     0.079 A 
ATOM     24  C   UNL d   1     -32.789  20.924  24.621  0.00  0.00     0.037 A 
ATOM     25  C   UNL d   1     -31.790  20.417  25.431  0.00  0.00     0.004 A 
ATOM     26  C   UNL d   1     -30.482  20.818  25.254  0.00  0.00     0.012 A 
BRANCH  23  27
ATOM     27  O   UNL d   1     -33.467  22.339  22.833  0.00  0.00    -0.255 OA
BRANCH  27  28
ATOM     28  C   UNL d   1     -33.585  21.782  21.523  0.00  0.00     0.530 C 
ATOM     29  F   UNL d   1     -32.375  21.935  20.840  0.00  0.00    -0.144 F 
ATOM     30  F   UNL d   1     -33.897  20.422  21.619  0.00  0.00    -0.144 F 
ATOM     31  F   UNL d   1     -34.602  22.444  20.825  0.00  0.00    -0.144 F 
ENDBRANCH  27  28
ENDBRANCH  23  27
ENDBRANCH   4  21
TORSDOF 7
ENDMDL
