MODEL 1
REMARK VINA RESULT:      -8.7      0.000      0.000
REMARK  6 active torsions:
REMARK  status: ('A' for Active; 'I' for Inactive)
REMARK    1  A    between atoms: C_8  and  N_9 
REMARK       I    between atoms: N_9  and  C_10 
REMARK    2  A    between atoms: C_10  and  C_12 
REMARK    3  A    between atoms: C_16  and  N_17 
REMARK    4  A    between atoms: C_28  and  O_29 
REMARK    5  A    between atoms: O_29  and  C_30 
REMARK    6  A    between atoms: C_30  and  C_32 
ROOT
ATOM      1  C   UNL d   1     -19.512  25.308  23.052  0.00  0.00     0.068 A 
ATOM      2  C   UNL d   1     -20.011  24.839  21.832  0.00  0.00     0.064 A 
ATOM      3  C   UNL d   1     -21.283  24.318  21.765  0.00  0.00     0.146 A 
ATOM      4  F   UNL d   1     -21.765  23.865  20.586  0.00  0.00    -0.204 F 
ATOM      5  C   UNL d   1     -22.078  24.257  22.910  0.00  0.00     0.104 A 
ATOM      6  C   UNL d   1     -21.591  24.725  24.123  0.00  0.00     0.073 A 
ATOM      7  C   UNL d   1     -20.311  25.246  24.201  0.00  0.00     0.087 A 
ENDROOT
BRANCH   1   8
ATOM      8  C   UNL d   1     -18.151  25.867  23.126  0.00  0.00     0.259 C 
ATOM      9  N   UNL d   1     -17.925  27.003  23.814  0.00  0.00    -0.322 N 
ATOM     10  H   UNL d   1     -18.670  27.497  24.192  0.00  0.00     0.169 HD
ATOM     11  O   UNL d   1     -17.231  25.303  22.566  0.00  0.00    -0.267 OA
BRANCH   9  12
ATOM     12  C   UNL d   1     -16.618  27.470  23.985  0.00  0.00     0.043 A 
ATOM     13  C   UNL d   1     -15.863  27.043  25.070  0.00  0.00    -0.035 A 
ATOM     14  C   UNL d   1     -16.450  26.074  26.063  0.00  0.00     0.050 C 
ATOM     15  C   UNL d   1     -14.571  27.507  25.237  0.00  0.00     0.012 A 
ATOM     16  C   UNL d   1     -14.030  28.395  24.327  0.00  0.00     0.043 A 
ATOM     17  C   UNL d   1     -14.781  28.823  23.244  0.00  0.00     0.118 A 
ATOM     18  F   UNL d   1     -14.249  29.692  22.356  0.00  0.00    -0.206 F 
ATOM     19  C   UNL d   1     -16.071  28.359  23.068  0.00  0.00     0.072 A 
ENDBRANCH   9  12
ENDBRANCH   1   8
BRANCH   7  20
ATOM     20  O   UNL d   1     -19.833  25.700  25.388  0.00  0.00    -0.345 OA
BRANCH  20  21
ATOM     21  C   UNL d   1     -20.762  26.356  26.254  0.00  0.00     0.129 C 
ATOM     22  C   UNL d   1     -20.569  25.851  27.686  0.00  0.00     0.040 C 
BRANCH  21  23
ATOM     23  C   UNL d   1     -20.522  27.866  26.209  0.00  0.00     0.015 C 
ATOM     24  C   UNL d   1     -21.640  28.583  26.970  0.00  0.00     0.007 C 
ATOM     25  C   UNL d   1     -21.399  30.093  26.925  0.00  0.00     0.000 C 
ATOM     26  C   UNL d   1     -20.053  30.415  27.576  0.00  0.00     0.000 C 
ATOM     27  C   UNL d   1     -18.935  29.698  26.816  0.00  0.00     0.000 C 
ATOM     28  C   UNL d   1     -19.175  28.187  26.860  0.00  0.00     0.007 C 
ENDBRANCH  21  23
ENDBRANCH  20  21
ENDBRANCH   7  20
BRANCH   5  29
ATOM     29  N   UNL d   1     -23.368  23.728  22.835  0.00  0.00    -0.178 N 
ATOM     30  C   UNL d   1     -24.483  24.257  23.383  0.00  0.00     0.351 A 
ATOM     31  N   UNL d   1     -25.510  23.457  23.053  0.00  0.00    -0.284 N 
ATOM     32  O   UNL d   1     -24.546  25.272  24.053  0.00  0.00    -0.244 OA
ATOM     33  C   UNL d   1     -25.016  22.394  22.324  0.00  0.00     0.131 A 
ATOM     34  C   UNL d   1     -26.929  23.650  23.370  0.00  0.00     0.135 C 
ATOM     35  N   UNL d   1     -23.744  22.545  22.180  0.00  0.00    -0.149 NA
ATOM     36  C   UNL d   1     -25.871  21.261  21.808  0.00  0.00     0.081 C 
ATOM     37  C   UNL d   1     -27.334  21.724  21.827  0.00  0.00     0.009 C 
ATOM     38  C   UNL d   1     -27.655  22.310  23.206  0.00  0.00     0.021 C 
ENDBRANCH   5  29
TORSDOF 6
ENDMDL
