MODEL 1
REMARK VINA RESULT:     -10.9      0.000      0.000
REMARK  7 active torsions:
REMARK  status: ('A' for Active; 'I' for Inactive)
REMARK    1  A    between atoms: O_2  and  C_3 
REMARK    2  A    between atoms: C_6  and  C_7 
REMARK    3  A    between atoms: C_11  and  N_12 
REMARK       I    between atoms: N_12  and  C_13 
REMARK    4  A    between atoms: C_13  and  C_15 
REMARK    5  A    between atoms: C_16  and  C_17 
REMARK    6  A    between atoms: C_17  and  O_19 
REMARK    7  A    between atoms: C_26  and  O_27 
ROOT
ATOM      1  C   UNL d   1     -24.907  22.857  22.712  0.00  0.00    -0.017 A 
ATOM      2  C   UNL d   1     -25.678  23.358  23.760  0.00  0.00     0.057 A 
ATOM      3  C   UNL d   1     -26.996  22.969  23.896  0.00  0.00     0.147 A 
ATOM      4  F   UNL d   1     -27.743  23.459  24.908  0.00  0.00    -0.204 F 
ATOM      5  C   UNL d   1     -27.551  22.067  22.993  0.00  0.00     0.113 A 
ATOM      6  C   UNL d   1     -26.782  21.563  21.949  0.00  0.00     0.147 A 
ATOM      7  F   UNL d   1     -27.323  20.687  21.074  0.00  0.00    -0.204 F 
ATOM      8  C   UNL d   1     -25.466  21.954  21.809  0.00  0.00     0.057 A 
ENDROOT
BRANCH   5   9
ATOM      9  N   UNL d   1     -28.884  21.669  23.135  0.00  0.00    -0.318 N 
ATOM     10  C   UNL d   1     -29.867  22.390  22.563  0.00  0.00     0.253 C 
ATOM     11  O   UNL d   1     -29.593  23.353  21.874  0.00  0.00    -0.268 OA
ATOM     12  H   UNL d   1     -29.102  20.873  23.647  0.00  0.00     0.169 HD
BRANCH  10  13
ATOM     13  C   UNL d   1     -31.279  22.013  22.773  0.00  0.00     0.023 C 
ATOM     14  C   UNL d   1     -32.339  22.017  21.696  0.00  0.00     0.045 C 
ATOM     15  C   UNL d   1     -33.492  21.160  22.271  0.00  0.00     0.010 C 
ATOM     16  C   UNL d   1     -33.272  21.316  23.794  0.00  0.00     0.046 C 
ATOM     17  C   UNL d   1     -31.800  21.624  23.944  0.00  0.00     0.027 C 
BRANCH  17  18
ATOM     18  C   UNL d   1     -31.044  21.514  25.205  0.00  0.00     0.172 C 
ATOM     19  O   UNL d   1     -31.237  22.312  26.100  0.00  0.00    -0.646 OA
BRANCH  18  20
ATOM     20  O   UNL d   1     -30.139  20.528  25.365  0.00  0.00    -0.773 OA
ATOM     21  H   UNL d   1     -29.458  20.662  26.039  0.00  0.00     0.167 HD
ENDBRANCH  18  20
ENDBRANCH  17  18
ENDBRANCH  10  13
ENDBRANCH   5   9
BRANCH   1  22
ATOM     22  C   UNL d   1     -23.493  23.279  22.562  0.00  0.00     0.008 A 
ATOM     23  C   UNL d   1     -22.623  23.204  23.647  0.00  0.00     0.018 A 
ATOM     24  C   UNL d   1     -21.310  23.603  23.507  0.00  0.00     0.038 A 
ATOM     25  C   UNL d   1     -20.849  24.070  22.282  0.00  0.00     0.070 A 
ATOM     26  C   UNL d   1     -21.710  24.148  21.198  0.00  0.00     0.074 A 
ATOM     27  C   UNL d   1     -23.031  23.755  21.331  0.00  0.00     0.082 A 
BRANCH  25  28
ATOM     28  O   UNL d   1     -19.554  24.456  22.149  0.00  0.00    -0.356 OA
ATOM     29  C   UNL d   1     -19.111  25.535  22.976  0.00  0.00     0.210 C 
ENDBRANCH  25  28
BRANCH  27  30
ATOM     30  O   UNL d   1     -23.875  23.832  20.269  0.00  0.00    -0.355 OA
ATOM     31  C   UNL d   1     -23.710  22.858  19.237  0.00  0.00     0.210 C 
ENDBRANCH  27  30
ENDBRANCH   1  22
TORSDOF 7
ENDMDL
