MODEL 1
REMARK VINA RESULT:      -9.3      0.000      0.000
REMARK  7 active torsions:
REMARK  status: ('A' for Active; 'I' for Inactive)
REMARK    1  A    between atoms: C_2  and  O_3 
REMARK    2  A    between atoms: O_3  and  C_4 
REMARK    3  A    between atoms: C_4  and  C_6 
REMARK    4  A    between atoms: C_8  and  N_9 
REMARK    5  A    between atoms: N_9  and  C_10 
REMARK    6  A    between atoms: C_13  and  O_14 
REMARK    7  A    between atoms: C_19  and  C_20 
ROOT
ATOM      1  C   UNL d   1     -23.339  23.650  20.921  0.00  0.00     0.113 A 
ATOM      2  S   UNL d   1     -24.327  22.352  20.255  0.00  0.00    -0.044 SA
ATOM      3  C   UNL d   1     -25.096  22.139  21.766  0.00  0.00     0.172 A 
ATOM      4  N   UNL d   1     -24.630  22.974  22.645  0.00  0.00    -0.222 NA
ATOM      5  C   UNL d   1     -23.685  23.801  22.250  0.00  0.00     0.093 A 
ENDROOT
BRANCH   3   6
ATOM      6  N   UNL d   1     -26.080  21.206  22.017  0.00  0.00    -0.335 N 
ATOM      7  H   UNL d   1     -25.869  20.260  21.992  0.00  0.00     0.168 HD
BRANCH   6   8
ATOM      8  C   UNL d   1     -27.384  21.624  22.308  0.00  0.00     0.034 A 
ATOM      9  C   UNL d   1     -28.283  21.862  21.276  0.00  0.00     0.032 A 
ATOM     10  C   UNL d   1     -29.570  22.275  21.564  0.00  0.00     0.039 A 
ATOM     11  C   UNL d   1     -29.964  22.450  22.883  0.00  0.00     0.068 A 
ATOM     12  C   UNL d   1     -29.066  22.213  23.913  0.00  0.00     0.039 A 
ATOM     13  C   UNL d   1     -27.781  21.795  23.627  0.00  0.00     0.032 A 
BRANCH  11  14
ATOM     14  O   UNL d   1     -31.230  22.857  23.164  0.00  0.00    -0.356 OA
ATOM     15  C   UNL d   1     -32.296  22.034  22.684  0.00  0.00     0.210 C 
ENDBRANCH  11  14
ENDBRANCH   6   8
ENDBRANCH   3   6
BRANCH   1  16
ATOM     16  C   UNL d   1     -22.363  24.399  20.223  0.00  0.00     0.302 C 
ATOM     17  O   UNL d   1     -22.692  25.380  19.583  0.00  0.00    -0.259 OA
BRANCH  16  18
ATOM     18  O   UNL d   1     -21.066  24.024  20.268  0.00  0.00    -0.317 OA
BRANCH  18  19
ATOM     19  C   UNL d   1     -20.161  24.904  20.938  0.00  0.00     0.174 C 
ATOM     20  C   UNL d   1     -19.184  24.083  21.782  0.00  0.00     0.034 C 
ENDBRANCH  18  19
ENDBRANCH  16  18
ENDBRANCH   1  16
BRANCH   5  21
ATOM     21  C   UNL d   1     -23.056  24.801  23.143  0.00  0.00    -0.006 A 
ATOM     22  C   UNL d   1     -23.513  26.119  23.152  0.00  0.00     0.014 A 
ATOM     23  C   UNL d   1     -22.923  27.045  23.987  0.00  0.00     0.001 A 
ATOM     24  C   UNL d   1     -21.879  26.671  24.813  0.00  0.00     0.000 A 
ATOM     25  C   UNL d   1     -21.420  25.365  24.808  0.00  0.00     0.001 A 
ATOM     26  C   UNL d   1     -22.006  24.428  23.983  0.00  0.00     0.014 A 
ENDBRANCH   5  21
TORSDOF 7
ENDMDL
