MODEL 1
REMARK VINA RESULT:     -10.0      0.000      0.000
REMARK  3 active torsions:
REMARK  status: ('A' for Active; 'I' for Inactive)
REMARK       I    between atoms: C_2  and  N_3 
REMARK    1  A    between atoms: C_2  and  C_20 
REMARK    2  A    between atoms: N_3  and  C_4 
REMARK    3  A    between atoms: N_12  and  C_13 
ROOT
ATOM      1  C   UNL d   1     -26.097  22.237  22.638  0.00  0.00     0.121 C 
ATOM      2  C   UNL d   1     -26.440  22.325  21.145  0.00  0.00     0.030 C 
ATOM      3  C   UNL d   1     -27.461  21.241  20.790  0.00  0.00     0.008 C 
ATOM      4  C   UNL d   1     -28.816  21.588  21.419  0.00  0.00     0.060 C 
ATOM      5  C   UNL d   1     -28.597  21.907  22.876  0.00  0.00     0.046 A 
ATOM      6  C   UNL d   1     -27.386  22.195  23.419  0.00  0.00     0.008 A 
ATOM      7  C   UNL d   1     -27.570  22.430  24.780  0.00  0.00     0.150 A 
ATOM      8  N   UNL d   1     -28.847  22.299  25.049  0.00  0.00    -0.179 NA
ATOM      9  N   UNL d   1     -29.513  21.963  23.860  0.00  0.00    -0.235 N 
ENDROOT
BRANCH   1  10
ATOM     10  N   UNL d   1     -25.317  23.411  23.035  0.00  0.00    -0.346 N 
ATOM     11  C   UNL d   1     -23.970  23.360  23.025  0.00  0.00     0.289 C 
ATOM     12  O   UNL d   1     -23.403  22.342  22.685  0.00  0.00    -0.264 OA
ATOM     13  H   UNL d   1     -25.770  24.225  23.308  0.00  0.00     0.163 HD
BRANCH  11  14
ATOM     14  C   UNL d   1     -23.179  24.551  23.428  0.00  0.00     0.217 A 
ATOM     15  N   UNL d   1     -21.945  24.384  23.881  0.00  0.00    -0.237 NA
ATOM     16  C   UNL d   1     -21.214  25.420  24.249  0.00  0.00     0.120 A 
ATOM     17  C   UNL d   1     -21.754  26.696  24.156  0.00  0.00     0.038 A 
ATOM     18  C   UNL d   1     -23.050  26.834  23.677  0.00  0.00     0.120 A 
ATOM     19  N   UNL d   1     -23.723  25.754  23.322  0.00  0.00    -0.237 NA
ENDBRANCH  11  14
ENDBRANCH   1  10
BRANCH   9  20
ATOM     20  C   UNL d   1     -30.889  21.731  23.722  0.00  0.00     0.097 A 
ATOM     21  C   UNL d   1     -31.529  20.815  24.549  0.00  0.00     0.145 A 
ATOM     22  C   UNL d   1     -32.887  20.591  24.410  0.00  0.00     0.045 A 
ATOM     23  F   UNL d   1     -30.825  20.145  25.488  0.00  0.00    -0.204 F 
ATOM     24  C   UNL d   1     -33.606  21.276  23.450  0.00  0.00     0.003 A 
ATOM     25  C   UNL d   1     -32.972  22.189  22.626  0.00  0.00     0.002 A 
ATOM     26  C   UNL d   1     -31.617  22.418  22.760  0.00  0.00     0.035 A 
ENDBRANCH   9  20
TORSDOF 3
ENDMDL
