MODEL 1
REMARK VINA RESULT:     -10.5      0.000      0.000
REMARK  7 active torsions:
REMARK  status: ('A' for Active; 'I' for Inactive)
REMARK    1  A    between atoms: C_2  and  O_3 
REMARK    2  A    between atoms: O_3  and  C_4 
REMARK    3  A    between atoms: C_6  and  N_7 
REMARK       I    between atoms: N_7  and  C_8 
REMARK    4  A    between atoms: C_8  and  C_10 
REMARK    5  A    between atoms: C_13  and  O_15 
REMARK    6  A    between atoms: C_19  and  C_20 
REMARK       I    between atoms: C_20  and  N_22 
REMARK    7  A    between atoms: N_22  and  C_23 
ROOT
ATOM      1  C   UNL d   1     -31.787  20.679  25.127  0.00  0.00     0.141 C 
ATOM      2  C   UNL d   1     -31.632  19.585  26.039  0.00  0.00     0.107 C 
ATOM      3  N   UNL d   1     -31.509  18.717  26.762  0.00  0.00    -0.191 NA
ATOM      4  C   UNL d   1     -33.022  20.991  24.641  0.00  0.00     0.065 C 
ATOM      5  C   UNL d   1     -34.224  20.185  25.062  0.00  0.00     0.077 C 
ENDROOT
BRANCH   1   6
ATOM      6  C   UNL d   1     -30.615  21.464  24.716  0.00  0.00     0.269 C 
ATOM      7  N   UNL d   1     -29.410  21.213  25.263  0.00  0.00    -0.320 N 
ATOM      8  H   UNL d   1     -29.329  20.565  25.981  0.00  0.00     0.169 HD
ATOM      9  O   UNL d   1     -30.733  22.341  23.881  0.00  0.00    -0.266 OA
BRANCH   7  10
ATOM     10  C   UNL d   1     -28.279  21.885  24.799  0.00  0.00     0.076 A 
ATOM     11  C   UNL d   1     -27.928  21.806  23.459  0.00  0.00     0.070 A 
ATOM     12  C   UNL d   1     -26.809  22.476  22.995  0.00  0.00     0.086 A 
ATOM     13  C   UNL d   1     -26.026  23.225  23.884  0.00  0.00     0.068 A 
ATOM     14  C   UNL d   1     -26.387  23.299  25.235  0.00  0.00     0.064 A 
ATOM     15  C   UNL d   1     -27.504  22.634  25.685  0.00  0.00     0.144 A 
ATOM     16  F   UNL d   1     -27.851  22.707  26.989  0.00  0.00    -0.204 F 
BRANCH  12  17
ATOM     17  O   UNL d   1     -26.469  22.403  21.683  0.00  0.00    -0.350 OA
BRANCH  17  18
ATOM     18  C   UNL d   1     -26.604  21.130  21.047  0.00  0.00     0.171 C 
ATOM     19  C   UNL d   1     -27.960  21.054  20.342  0.00  0.00     0.034 C 
ENDBRANCH  17  18
ENDBRANCH  12  17
BRANCH  13  20
ATOM     20  C   UNL d   1     -24.831  23.935  23.399  0.00  0.00     0.259 C 
ATOM     21  O   UNL d   1     -24.794  25.151  23.425  0.00  0.00    -0.267 OA
ATOM     22  N   UNL d   1     -23.779  23.240  22.926  0.00  0.00    -0.319 N 
ATOM     23  H   UNL d   1     -23.838  22.276  22.827  0.00  0.00     0.169 HD
BRANCH  22  24
ATOM     24  C   UNL d   1     -22.599  23.906  22.575  0.00  0.00     0.091 A 
ATOM     25  C   UNL d   1     -22.290  24.118  21.238  0.00  0.00     0.040 A 
ATOM     26  C   UNL d   1     -21.123  24.777  20.894  0.00  0.00     0.021 A 
ATOM     27 BR   UNL d   1     -23.465  23.508  19.887  0.00  0.00    -0.049 Br
ATOM     28  C   UNL d   1     -20.263  25.223  21.880  0.00  0.00     0.005 A 
ATOM     29  C   UNL d   1     -20.567  25.015  23.214  0.00  0.00     0.045 A 
ATOM     30  C   UNL d   1     -21.732  24.357  23.565  0.00  0.00     0.144 A 
ATOM     31  F   UNL d   1     -22.031  24.158  24.867  0.00  0.00    -0.204 F 
ENDBRANCH  22  24
ENDBRANCH  13  20
ENDBRANCH   7  10
ENDBRANCH   1   6
BRANCH   4  32
ATOM     32  O   UNL d   1     -33.168  22.016  23.785  0.00  0.00    -0.364 OA
ATOM     33  H   UNL d   1     -33.258  22.899  24.169  0.00  0.00     0.217 HD
ENDBRANCH   4  32
TORSDOF 7
ENDMDL
