MODEL 1
REMARK VINA RESULT:     -11.6      0.000      0.000
REMARK  7 active torsions:
REMARK  status: ('A' for Active; 'I' for Inactive)
REMARK    1  A    between atoms: C_5  and  N_6 
REMARK    2  A    between atoms: N_6  and  C_7 
REMARK    3  A    between atoms: C_10  and  C_11 
REMARK    4  A    between atoms: C_15  and  C_16 
REMARK       I    between atoms: C_16  and  N_18 
REMARK    5  A    between atoms: N_18  and  C_19 
REMARK    6  A    between atoms: C_26  and  C_27 
REMARK    7  A    between atoms: C_27  and  O_29 
ROOT
ATOM      1  C   UNL d   1     -26.950  22.697  23.648  0.00  0.00     0.050 A 
ATOM      2  C   UNL d   1     -26.319  23.887  23.994  0.00  0.00     0.146 A 
ATOM      3  N   UNL d   1     -25.192  24.245  23.415  0.00  0.00    -0.258 NA
ATOM      4  C   UNL d   1     -24.615  23.492  22.486  0.00  0.00     0.072 A 
ATOM      5  C   UNL d   1     -25.194  22.289  22.086  0.00  0.00    -0.030 A 
ATOM      6  C   UNL d   1     -24.536  21.442  21.027  0.00  0.00     0.050 C 
ATOM      7  C   UNL d   1     -26.374  21.880  22.677  0.00  0.00     0.040 A 
ENDROOT
BRANCH   1   8
ATOM      8  N   UNL d   1     -28.146  22.325  24.267  0.00  0.00    -0.354 N 
ATOM      9  H   UNL d   1     -28.160  22.132  25.217  0.00  0.00     0.166 HD
BRANCH   8  10
ATOM     10  C   UNL d   1     -29.313  22.233  23.521  0.00  0.00     0.049 A 
ATOM     11  C   UNL d   1     -29.306  22.556  22.169  0.00  0.00     0.031 A 
ATOM     12  C   UNL d   1     -30.466  22.458  21.429  0.00  0.00     0.009 A 
ATOM     13  C   UNL d   1     -31.648  22.051  22.027  0.00  0.00    -0.061 A 
ATOM     14  C   UNL d   1     -32.909  21.956  21.207  0.00  0.00     0.048 C 
ATOM     15  C   UNL d   1     -31.677  21.733  23.366  0.00  0.00     0.027 A 
ATOM     16  C   UNL d   1     -30.510  21.821  24.129  0.00  0.00     0.064 A 
BRANCH  16  17
ATOM     17  C   UNL d   1     -30.534  21.482  25.563  0.00  0.00     0.178 C 
ATOM     18  O   UNL d   1     -31.361  21.990  26.294  0.00  0.00    -0.646 OA
BRANCH  17  19
ATOM     19  O   UNL d   1     -29.639  20.607  26.064  0.00  0.00    -0.773 OA
ATOM     20  H   UNL d   1     -29.881  19.671  26.045  0.00  0.00     0.167 HD
ENDBRANCH  17  19
ENDBRANCH  16  17
ENDBRANCH   8  10
ENDBRANCH   1   8
BRANCH   4  21
ATOM     21  C   UNL d   1     -23.346  23.940  21.864  0.00  0.00    -0.006 A 
ATOM     22  C   UNL d   1     -22.221  24.157  22.653  0.00  0.00     0.030 A 
ATOM     23  C   UNL d   1     -21.032  24.579  22.061  0.00  0.00     0.032 A 
ATOM     24  C   UNL d   1     -20.977  24.780  20.680  0.00  0.00     0.017 A 
ATOM     25  C   UNL d   1     -22.100  24.568  19.904  0.00  0.00     0.002 A 
ATOM     26  C   UNL d   1     -23.279  24.145  20.486  0.00  0.00     0.014 A 
BRANCH  23  27
ATOM     27  C   UNL d   1     -19.832  24.811  22.892  0.00  0.00     0.252 C 
ATOM     28  O   UNL d   1     -19.730  24.274  23.977  0.00  0.00    -0.268 OA
ATOM     29  N   UNL d   1     -18.850  25.620  22.446  0.00  0.00    -0.352 N 
ATOM     30  H   UNL d   1     -18.931  26.049  21.580  0.00  0.00     0.163 HD
BRANCH  29  31
ATOM     31  C   UNL d   1     -17.660  25.850  23.270  0.00  0.00     0.084 A 
ATOM     32  C   UNL d   1     -16.304  25.868  22.563  0.00  0.00     0.027 A 
ATOM     33  C   UNL d   1     -16.914  27.172  23.079  0.00  0.00     0.027 A 
ENDBRANCH  29  31
ENDBRANCH  23  27
ENDBRANCH   4  21
TORSDOF 7
ENDMDL
