MODEL 1
REMARK VINA RESULT:      -8.4      0.000      0.000
REMARK  9 active torsions:
REMARK  status: ('A' for Active; 'I' for Inactive)
REMARK    1  A    between atoms: C_2  and  C_3 
REMARK    2  A    between atoms: C_3  and  C_4 
REMARK    3  A    between atoms: C_4  and  C_5 
REMARK    4  A    between atoms: C_8  and  C_9 
REMARK       I    between atoms: C_9  and  N_11 
REMARK    5  A    between atoms: N_11  and  C_12 
REMARK    6  A    between atoms: C_12  and  C_13 
REMARK    7  A    between atoms: C_12  and  C_24 
REMARK    8  A    between atoms: C_13  and  C_14 
REMARK       I    between atoms: C_24  and  N_26 
REMARK    9  A    between atoms: N_26  and  C_27 
ROOT
ATOM      1  C   UNL d   1     -20.108  26.066  24.654  0.00  0.00     0.181 C 
ENDROOT
BRANCH   1   2
ATOM      2  N   UNL d   1     -21.117  25.177  24.073  0.00  0.00    -0.342 N 
ATOM      3  C   UNL d   1     -21.292  25.138  22.737  0.00  0.00     0.271 C 
ATOM      4  O   UNL d   1     -20.612  25.840  22.014  0.00  0.00    -0.266 OA
ATOM      5  H   UNL d   1     -21.660  24.616  24.649  0.00  0.00     0.163 HD
BRANCH   3   6
ATOM      6  C   UNL d   1     -22.312  24.238  22.148  0.00  0.00     0.124 A 
ATOM      7  C   UNL d   1     -22.595  24.314  20.787  0.00  0.00     0.038 A 
ATOM      8  C   UNL d   1     -23.549  23.463  20.250  0.00  0.00     0.011 A 
ATOM      9  C   UNL d   1     -24.193  22.574  21.096  0.00  0.00    -0.041 A 
ATOM     10  C   UNL d   1     -23.864  22.557  22.442  0.00  0.00     0.124 A 
ATOM     11  N   UNL d   1     -22.951  23.372  22.924  0.00  0.00    -0.255 NA
BRANCH   9  12
ATOM     12  C   UNL d   1     -25.241  21.634  20.558  0.00  0.00     0.040 C 
BRANCH  12  13
ATOM     13  C   UNL d   1     -26.364  21.482  21.585  0.00  0.00     0.004 C 
BRANCH  13  14
ATOM     14  C   UNL d   1     -27.689  21.236  20.859  0.00  0.00    -0.004 C 
ATOM     15  C   UNL d   1     -28.783  22.100  21.488  0.00  0.00     0.005 C 
ENDBRANCH  13  14
ENDBRANCH  12  13
ENDBRANCH   9  12
ENDBRANCH   3   6
ENDBRANCH   1   2
BRANCH   1  16
ATOM     16  C   UNL d   1     -18.761  25.344  24.705  0.00  0.00     0.075 C 
BRANCH  16  17
ATOM     17  C   UNL d   1     -17.739  26.132  23.925  0.00  0.00    -0.028 A 
ATOM     18  C   UNL d   1     -17.145  27.413  24.314  0.00  0.00    -0.002 A 
ATOM     19  C   UNL d   1     -16.253  27.757  23.282  0.00  0.00     0.042 A 
ATOM     20  C   UNL d   1     -17.297  28.259  25.414  0.00  0.00     0.014 A 
ATOM     21  N   UNL d   1     -16.311  26.751  22.343  0.00  0.00    -0.365 N 
ATOM     22  C   UNL d   1     -15.530  28.941  23.372  0.00  0.00     0.030 A 
ATOM     23  C   UNL d   1     -17.196  25.788  22.747  0.00  0.00     0.096 A 
ATOM     24  H   UNL d   1     -15.797  26.726  21.521  0.00  0.00     0.165 HD
ATOM     25  C   UNL d   1     -15.696  29.762  24.466  0.00  0.00     0.002 A 
ATOM     26  C   UNL d   1     -16.577  29.419  25.483  0.00  0.00     0.001 A 
ENDBRANCH  16  17
ENDBRANCH   1  16
BRANCH   1  27
ATOM     27  C   UNL d   1     -20.525  26.452  26.050  0.00  0.00     0.245 C 
ATOM     28  O   UNL d   1     -21.636  26.896  26.251  0.00  0.00    -0.271 OA
ATOM     29  N   UNL d   1     -19.663  26.304  27.076  0.00  0.00    -0.325 N 
ATOM     30  H   UNL d   1     -18.804  25.879  26.929  0.00  0.00     0.169 HD
BRANCH  29  31
ATOM     31  C   UNL d   1     -20.008  26.764  28.351  0.00  0.00     0.034 A 
ATOM     32  C   UNL d   1     -20.008  28.126  28.623  0.00  0.00     0.030 A 
ATOM     33  C   UNL d   1     -20.349  28.576  29.884  0.00  0.00     0.009 A 
ATOM     34  C   UNL d   1     -20.692  27.673  30.873  0.00  0.00    -0.062 A 
ATOM     35  C   UNL d   1     -20.693  26.317  30.605  0.00  0.00     0.009 A 
ATOM     36  C   UNL d   1     -21.065  28.169  32.247  0.00  0.00     0.048 C 
ATOM     37  C   UNL d   1     -20.358  25.860  29.346  0.00  0.00     0.030 A 
ENDBRANCH  29  31
ENDBRANCH   1  27
TORSDOF 9
ENDMDL
