MODEL 1
REMARK VINA RESULT:     -10.0      0.000      0.000
REMARK  6 active torsions:
REMARK  status: ('A' for Active; 'I' for Inactive)
REMARK       I    between atoms: C_2  and  N_3 
REMARK    1  A    between atoms: C_2  and  C_18 
REMARK    2  A    between atoms: N_3  and  C_4 
REMARK    3  A    between atoms: C_4  and  C_5 
REMARK    4  A    between atoms: C_5  and  C_6 
REMARK    5  A    between atoms: C_5  and  C_12 
REMARK    6  A    between atoms: C_25  and  O_26 
ROOT
ATOM      1  O   UNL d   1     -26.224  23.142  25.399  0.00  0.00    -0.268 OA
ATOM      2  C   UNL d   1     -26.849  23.384  24.384  0.00  0.00     0.254 C 
ATOM      3  N   UNL d   1     -26.337  24.222  23.461  0.00  0.00    -0.356 N 
ATOM      4  H   UNL d   1     -26.835  24.415  22.651  0.00  0.00     0.162 HD
ENDROOT
BRANCH   3   5
ATOM      5  C   UNL d   1     -25.027  24.841  23.680  0.00  0.00     0.137 C 
BRANCH   5   6
ATOM      6  C   UNL d   1     -23.927  23.802  23.451  0.00  0.00     0.069 C 
BRANCH   6   7
ATOM      7  C   UNL d   1     -24.032  23.260  22.049  0.00  0.00    -0.048 A 
ATOM      8  C   UNL d   1     -23.491  23.967  20.992  0.00  0.00     0.008 A 
ATOM      9  C   UNL d   1     -23.587  23.470  19.706  0.00  0.00     0.001 A 
ATOM     10  C   UNL d   1     -24.224  22.266  19.477  0.00  0.00     0.000 A 
ATOM     11  C   UNL d   1     -24.766  21.558  20.534  0.00  0.00     0.001 A 
ATOM     12  C   UNL d   1     -24.665  22.052  21.820  0.00  0.00     0.008 A 
ENDBRANCH   6   7
BRANCH   6  13
ATOM     13  C   UNL d   1     -22.579  24.448  23.641  0.00  0.00    -0.048 A 
ATOM     14  C   UNL d   1     -22.488  25.814  23.832  0.00  0.00     0.008 A 
ATOM     15  C   UNL d   1     -21.251  26.407  24.005  0.00  0.00     0.001 A 
ATOM     16  C   UNL d   1     -20.106  25.633  23.988  0.00  0.00     0.000 A 
ATOM     17  C   UNL d   1     -20.197  24.268  23.797  0.00  0.00     0.001 A 
ATOM     18  C   UNL d   1     -21.434  23.673  23.629  0.00  0.00     0.008 A 
ENDBRANCH   6  13
ENDBRANCH   5   6
ENDBRANCH   3   5
BRANCH   2  19
ATOM     19  C   UNL d   1     -28.167  22.762  24.163  0.00  0.00     0.068 A 
ATOM     20  C   UNL d   1     -28.768  22.006  25.180  0.00  0.00     0.123 A 
ATOM     21  C   UNL d   1     -30.011  21.428  24.965  0.00  0.00     0.188 A 
ATOM     22  C   UNL d   1     -30.650  21.594  23.747  0.00  0.00     0.157 A 
ATOM     23  F   UNL d   1     -30.597  20.704  25.943  0.00  0.00    -0.200 F 
ATOM     24  C   UNL d   1     -30.054  22.337  22.738  0.00  0.00     0.047 A 
ATOM     25  F   UNL d   1     -31.860  21.029  23.542  0.00  0.00    -0.203 F 
ATOM     26  C   UNL d   1     -28.821  22.918  22.938  0.00  0.00     0.023 A 
BRANCH  20  27
ATOM     27  O   UNL d   1     -28.139  21.845  26.372  0.00  0.00    -0.357 OA
ATOM     28  H   UNL d   1     -28.119  22.643  26.918  0.00  0.00     0.218 HD
ENDBRANCH  20  27
ENDBRANCH   2  19
TORSDOF 6
ENDMDL
