MODEL 1
REMARK VINA RESULT:     -13.5      0.000      0.000
REMARK  6 active torsions:
REMARK  status: ('A' for Active; 'I' for Inactive)
REMARK    1  A    between atoms: C_5  and  C_6 
REMARK    2  A    between atoms: C_6  and  O_8 
REMARK    3  A    between atoms: C_10  and  C_11 
REMARK    4  A    between atoms: C_16  and  C_17 
REMARK    5  A    between atoms: C_21  and  C_22 
REMARK    6  A    between atoms: C_22  and  N_23 
ROOT
ATOM      1  C   UNL d   1     -26.762  22.831  23.027  0.00  0.00     0.058 A 
ATOM      2  C   UNL d   1     -25.974  22.083  22.152  0.00  0.00     0.170 A 
ATOM      3  F   UNL d   1     -26.497  21.009  21.522  0.00  0.00    -0.202 F 
ATOM      4  C   UNL d   1     -24.659  22.444  21.927  0.00  0.00     0.170 A 
ATOM      5  F   UNL d   1     -23.897  21.723  21.075  0.00  0.00    -0.202 F 
ATOM      6  C   UNL d   1     -24.117  23.551  22.583  0.00  0.00     0.058 A 
ATOM      7  C   UNL d   1     -24.904  24.296  23.463  0.00  0.00     0.170 A 
ATOM      8  F   UNL d   1     -24.380  25.367  24.097  0.00  0.00    -0.202 F 
ATOM      9  C   UNL d   1     -26.221  23.937  23.684  0.00  0.00     0.170 A 
ATOM     10  F   UNL d   1     -26.983  24.658  24.534  0.00  0.00    -0.202 F 
ENDROOT
BRANCH   1  11
ATOM     11  C   UNL d   1     -28.175  22.446  23.266  0.00  0.00    -0.016 A 
ATOM     12  C   UNL d   1     -28.551  21.922  24.501  0.00  0.00     0.033 A 
ATOM     13  C   UNL d   1     -29.872  21.554  24.732  0.00  0.00     0.069 A 
ATOM     14  C   UNL d   1     -30.833  21.726  23.710  0.00  0.00     0.102 A 
ATOM     15  N   UNL d   1     -32.154  21.475  23.633  0.00  0.00    -0.233 NA
ATOM     16  C   UNL d   1     -30.439  22.256  22.471  0.00  0.00     0.064 A 
ATOM     17  C   UNL d   1     -32.597  21.807  22.453  0.00  0.00     0.101 A 
ATOM     18  C   UNL d   1     -34.027  21.671  21.998  0.00  0.00     0.091 C 
ATOM     19  N   UNL d   1     -31.581  22.296  21.695  0.00  0.00    -0.343 N 
ATOM     20  H   UNL d   1     -31.646  22.612  20.780  0.00  0.00     0.167 HD
ATOM     21  C   UNL d   1     -29.118  22.612  22.255  0.00  0.00     0.044 A 
BRANCH  13  22
ATOM     22  C   UNL d   1     -30.268  20.994  26.036  0.00  0.00     0.178 C 
ATOM     23  O   UNL d   1     -30.218  21.686  27.034  0.00  0.00    -0.646 OA
BRANCH  22  24
ATOM     24  O   UNL d   1     -30.685  19.716  26.122  0.00  0.00    -0.773 OA
ATOM     25  H   UNL d   1     -30.106  19.038  25.747  0.00  0.00     0.167 HD
ENDBRANCH  22  24
ENDBRANCH  13  22
ENDBRANCH   1  11
BRANCH   6  26
ATOM     26  C   UNL d   1     -22.705  23.935  22.345  0.00  0.00    -0.019 A 
ATOM     27  C   UNL d   1     -21.859  24.193  23.422  0.00  0.00     0.021 A 
ATOM     28  C   UNL d   1     -20.545  24.550  23.194  0.00  0.00    -0.029 A 
ATOM     29  C   UNL d   1     -20.068  24.654  21.900  0.00  0.00     0.009 A 
ATOM     30  C   UNL d   1     -20.904  24.401  20.827  0.00  0.00     0.001 A 
ATOM     31  C   UNL d   1     -22.217  24.037  21.043  0.00  0.00     0.012 A 
BRANCH  28  32
ATOM     32  C   UNL d   1     -19.629  24.827  24.358  0.00  0.00     0.311 C 
BRANCH  32  33
ATOM     33  N   UNL d   1     -20.306  25.713  25.314  0.00  0.00     0.092 N 
ATOM     34  C   UNL d   1     -20.847  26.900  24.640  0.00  0.00     0.272 C 
ATOM     35  C   UNL d   1     -21.668  27.724  25.635  0.00  0.00     0.030 C 
ATOM     36  C   UNL d   1     -20.772  28.142  26.804  0.00  0.00     0.003 C 
ATOM     37  C   UNL d   1     -20.183  26.889  27.459  0.00  0.00     0.030 C 
ATOM     38  C   UNL d   1     -19.405  26.089  26.411  0.00  0.00     0.272 C 
ENDBRANCH  32  33
ENDBRANCH  28  32
ENDBRANCH   6  26
TORSDOF 6
ENDMDL
