MODEL 1
REMARK VINA RESULT:      -8.3      0.000      0.000
REMARK  7 active torsions:
REMARK  status: ('A' for Active; 'I' for Inactive)
REMARK    1  A    between atoms: C_2  and  O_3 
REMARK    2  A    between atoms: C_2  and  C_36 
REMARK    3  A    between atoms: O_3  and  C_4 
REMARK    4  A    between atoms: C_6  and  N_7 
REMARK    5  A    between atoms: C_20  and  C_21 
REMARK       I    between atoms: C_21  and  N_23 
REMARK    6  A    between atoms: N_23  and  C_24 
REMARK    7  A    between atoms: C_29  and  N_30 
ROOT
ATOM      1  C   UNL d   1     -20.171  26.138  25.533  0.00  0.00     0.087 A 
ATOM      2  C   UNL d   1     -20.737  25.316  24.572  0.00  0.00     0.073 A 
ATOM      3  C   UNL d   1     -21.923  25.686  23.953  0.00  0.00     0.104 A 
ATOM      4  C   UNL d   1     -22.550  26.884  24.295  0.00  0.00     0.146 A 
ATOM      5  F   UNL d   1     -23.704  27.237  23.687  0.00  0.00    -0.204 F 
ATOM      6  C   UNL d   1     -21.996  27.708  25.249  0.00  0.00     0.064 A 
ATOM      7  C   UNL d   1     -20.804  27.341  25.882  0.00  0.00     0.068 A 
ENDROOT
BRANCH   7   8
ATOM      8  C   UNL d   1     -20.211  28.216  26.907  0.00  0.00     0.260 C 
ATOM      9  O   UNL d   1     -19.630  29.232  26.578  0.00  0.00    -0.267 OA
ATOM     10  N   UNL d   1     -20.315  27.891  28.211  0.00  0.00    -0.304 N 
ATOM     11  H   UNL d   1     -20.779  27.081  28.474  0.00  0.00     0.171 HD
BRANCH  10  12
ATOM     12  C   UNL d   1     -19.755  28.720  29.183  0.00  0.00     0.171 A 
ATOM     13  C   UNL d   1     -20.539  29.693  29.814  0.00  0.00     0.151 A 
ATOM     14  N   UNL d   1     -20.000  30.472  30.741  0.00  0.00    -0.243 NA
ATOM     15  C   UNL d   1     -18.722  30.336  31.058  0.00  0.00     0.138 A 
ATOM     16  C   UNL d   1     -17.949  29.381  30.431  0.00  0.00     0.138 A 
ATOM     17  N   UNL d   1     -18.478  28.593  29.508  0.00  0.00    -0.239 NA
BRANCH  13  18
ATOM     18  N   UNL d   1     -21.881  29.838  29.475  0.00  0.00    -0.261 NA
ATOM     19  C   UNL d   1     -22.159  31.198  28.993  0.00  0.00     0.123 C 
ATOM     20  C   UNL d   1     -23.629  31.296  28.577  0.00  0.00     0.182 C 
ATOM     21  O   UNL d   1     -24.459  30.932  29.682  0.00  0.00    -0.389 OA
ATOM     22  C   UNL d   1     -24.215  29.612  30.177  0.00  0.00     0.182 C 
ATOM     23  C   UNL d   1     -22.752  29.498  30.611  0.00  0.00     0.123 C 
ENDBRANCH  13  18
ENDBRANCH  10  12
ENDBRANCH   7   8
BRANCH   1  24
ATOM     24  O   UNL d   1     -19.012  25.778  26.139  0.00  0.00    -0.345 OA
BRANCH  24  25
ATOM     25  C   UNL d   1     -17.832  26.489  25.757  0.00  0.00     0.129 C 
ATOM     26  C   UNL d   1     -16.961  26.731  26.990  0.00  0.00     0.040 C 
BRANCH  25  27
ATOM     27  C   UNL d   1     -17.049  25.665  24.732  0.00  0.00     0.015 C 
ATOM     28  C   UNL d   1     -15.589  25.550  25.179  0.00  0.00     0.007 C 
ATOM     29  C   UNL d   1     -14.807  24.727  24.155  0.00  0.00     0.000 C 
ATOM     30  C   UNL d   1     -14.869  25.415  22.790  0.00  0.00     0.000 C 
ATOM     31  C   UNL d   1     -16.328  25.532  22.344  0.00  0.00     0.000 C 
ATOM     32  C   UNL d   1     -17.111  26.354  23.368  0.00  0.00     0.007 C 
ENDBRANCH  25  27
ENDBRANCH  24  25
ENDBRANCH   1  24
BRANCH   3  33
ATOM     33  N   UNL d   1     -22.489  24.855  22.984  0.00  0.00    -0.178 N 
ATOM     34  C   UNL d   1     -22.116  24.768  21.688  0.00  0.00     0.351 A 
ATOM     35  N   UNL d   1     -22.891  23.836  21.110  0.00  0.00    -0.284 N 
ATOM     36  O   UNL d   1     -21.238  25.414  21.146  0.00  0.00    -0.244 OA
ATOM     37  C   UNL d   1     -23.782  23.366  22.053  0.00  0.00     0.131 A 
ATOM     38  C   UNL d   1     -22.823  23.350  19.728  0.00  0.00     0.135 C 
ATOM     39  N   UNL d   1     -23.546  23.952  23.177  0.00  0.00    -0.149 NA
ATOM     40  C   UNL d   1     -24.852  22.340  21.759  0.00  0.00     0.081 C 
ATOM     41  C   UNL d   1     -24.471  21.617  20.459  0.00  0.00     0.009 C 
ATOM     42  C   UNL d   1     -24.147  22.659  19.384  0.00  0.00     0.021 C 
ENDBRANCH   3  33
TORSDOF 7
ENDMDL
