MODEL 1
REMARK VINA RESULT:      -8.6      0.000      0.000
REMARK  4 active torsions:
REMARK  status: ('A' for Active; 'I' for Inactive)
REMARK    1  A    between atoms: C_2  and  O_3 
REMARK    2  A    between atoms: C_2  and  C_4 
REMARK    3  A    between atoms: C_9  and  N_10 
REMARK    4  A    between atoms: N_10  and  C_11 
ROOT
ATOM      1  C   UNL d   1     -32.387  20.983  24.090  0.00  0.00     0.083 A 
ATOM      2  C   UNL d   1     -33.491  20.188  23.759  0.00  0.00     0.024 A 
ATOM      3  C   UNL d   1     -34.135  20.426  22.558  0.00  0.00     0.020 A 
ATOM      4  C   UNL d   1     -33.674  21.428  21.723  0.00  0.00     0.119 A 
ATOM      5  N   UNL d   1     -32.634  22.168  22.054  0.00  0.00    -0.242 NA
ATOM      6  C   UNL d   1     -31.981  21.985  23.191  0.00  0.00     0.144 A 
ENDROOT
BRANCH   6   7
ATOM      7  N   UNL d   1     -30.893  22.783  23.496  0.00  0.00    -0.340 N 
ATOM      8  H   UNL d   1     -31.009  23.573  24.047  0.00  0.00     0.167 HD
BRANCH   7   9
ATOM      9  C   UNL d   1     -29.625  22.452  23.009  0.00  0.00     0.033 A 
ATOM     10  C   UNL d   1     -29.457  22.124  21.670  0.00  0.00     0.031 A 
ATOM     11  C   UNL d   1     -28.203  21.798  21.191  0.00  0.00     0.026 A 
ATOM     12  C   UNL d   1     -27.114  21.798  22.045  0.00  0.00     0.034 A 
ATOM     13  C   UNL d   1     -27.278  22.125  23.379  0.00  0.00     0.026 A 
ATOM     14 CL   UNL d   1     -25.539  21.387  21.440  0.00  0.00    -0.084 Cl
ATOM     15  C   UNL d   1     -28.529  22.456  23.863  0.00  0.00     0.031 A 
ENDBRANCH   7   9
ENDBRANCH   6   7
BRANCH   1  16
ATOM     16  C   UNL d   1     -31.663  20.773  25.355  0.00  0.00     0.180 C 
ATOM     17  O   UNL d   1     -31.703  21.619  26.226  0.00  0.00    -0.646 OA
BRANCH  16  18
ATOM     18  O   UNL d   1     -30.958  19.640  25.547  0.00  0.00    -0.773 OA
ATOM     19  H   UNL d   1     -30.276  19.433  24.893  0.00  0.00     0.167 HD
ENDBRANCH  16  18
ENDBRANCH   1  16
TORSDOF 4
ENDMDL
