MODEL 1
REMARK VINA RESULT:     -10.7      0.000      0.000
REMARK  6 active torsions:
REMARK  status: ('A' for Active; 'I' for Inactive)
REMARK    1  A    between atoms: C_2  and  O_3 
REMARK    2  A    between atoms: C_2  and  C_4 
REMARK    3  A    between atoms: C_10  and  C_11 
REMARK    4  A    between atoms: N_12  and  N_13 
REMARK    5  A    between atoms: N_13  and  C_14 
REMARK    6  A    between atoms: C_16  and  C_17 
ROOT
ATOM      1  N   UNL d   1     -27.591  23.328  23.667  0.00  0.00    -0.255 N 
ATOM      2  H   UNL d   1     -27.526  23.868  24.470  0.00  0.00     0.191 HD
ENDROOT
BRANCH   1   3
ATOM      3  N   UNL d   1     -28.847  22.983  23.154  0.00  0.00    -0.184 NA
ATOM      4  C   UNL d   1     -29.670  22.273  23.868  0.00  0.00     0.151 C 
BRANCH   4   5
ATOM      5  C   UNL d   1     -30.989  21.911  23.330  0.00  0.00     0.003 A 
ATOM      6  C   UNL d   1     -31.917  21.215  24.134  0.00  0.00     0.087 A 
ATOM      7  C   UNL d   1     -33.170  20.884  23.609  0.00  0.00     0.134 A 
ATOM      8  F   UNL d   1     -34.071  20.224  24.370  0.00  0.00    -0.205 F 
ATOM      9  C   UNL d   1     -33.485  21.227  22.307  0.00  0.00     0.043 A 
ATOM     10  C   UNL d   1     -32.569  21.905  21.519  0.00  0.00     0.004 A 
ATOM     11  C   UNL d   1     -31.330  22.247  22.020  0.00  0.00     0.014 A 
BRANCH   6  12
ATOM     12  C   UNL d   1     -31.572  20.846  25.517  0.00  0.00     0.180 C 
ATOM     13  O   UNL d   1     -31.802  21.619  26.427  0.00  0.00    -0.646 OA
BRANCH  12  14
ATOM     14  O   UNL d   1     -31.002  19.652  25.774  0.00  0.00    -0.773 OA
ATOM     15  H   UNL d   1     -30.132  19.489  25.385  0.00  0.00     0.167 HD
ENDBRANCH  12  14
ENDBRANCH   6  12
ENDBRANCH   4   5
ENDBRANCH   1   3
BRANCH   1  16
ATOM     16  C   UNL d   1     -26.440  22.897  23.028  0.00  0.00     0.187 A 
ATOM     17  S   UNL d   1     -26.340  21.528  21.926  0.00  0.00    -0.060 SA
ATOM     18  C   UNL d   1     -24.617  21.830  21.706  0.00  0.00     0.086 A 
ATOM     19  C   UNL d   1     -24.277  22.892  22.459  0.00  0.00     0.078 A 
ATOM     20  N   UNL d   1     -25.267  23.440  23.149  0.00  0.00    -0.222 NA
BRANCH  19  21
ATOM     21  C   UNL d   1     -22.891  23.417  22.509  0.00  0.00     0.015 A 
ATOM     22  C   UNL d   1     -22.337  24.041  21.392  0.00  0.00     0.046 A 
ATOM     23  C   UNL d   1     -21.045  24.528  21.446  0.00  0.00     0.025 A 
ATOM     24 CL   UNL d   1     -23.268  24.207  19.937  0.00  0.00    -0.083 Cl
ATOM     25  C   UNL d   1     -20.302  24.397  22.605  0.00  0.00     0.002 A 
ATOM     26  C   UNL d   1     -20.847  23.776  23.716  0.00  0.00     0.001 A 
ATOM     27  C   UNL d   1     -22.136  23.287  23.674  0.00  0.00     0.015 A 
ENDBRANCH  19  21
ENDBRANCH   1  16
TORSDOF 6
ENDMDL
