MODEL 1
REMARK VINA RESULT:      -8.7      0.000      0.000
REMARK  7 active torsions:
REMARK  status: ('A' for Active; 'I' for Inactive)
REMARK    1  A    between atoms: C_2  and  C_3 
REMARK    2  A    between atoms: N_5  and  C_6 
REMARK    3  A    between atoms: C_8  and  O_9 
REMARK    4  A    between atoms: O_9  and  C_10 
REMARK    5  A    between atoms: C_10  and  C_12 
REMARK    6  A    between atoms: C_18  and  C_19 
REMARK       I    between atoms: C_19  and  N_21 
REMARK    7  A    between atoms: N_21  and  C_22 
ROOT
ATOM      1  C   UNL d   1     -28.433  22.147  22.571  0.00  0.00     0.104 A 
ATOM      2  C   UNL d   1     -27.735  22.911  23.496  0.00  0.00     0.073 A 
ATOM      3  C   UNL d   1     -26.359  23.032  23.397  0.00  0.00     0.087 A 
ATOM      4  C   UNL d   1     -25.676  22.393  22.352  0.00  0.00     0.068 A 
ATOM      5  C   UNL d   1     -26.388  21.625  21.423  0.00  0.00     0.064 A 
ATOM      6  C   UNL d   1     -27.754  21.505  21.535  0.00  0.00     0.146 A 
ATOM      7  F   UNL d   1     -28.442  20.764  20.638  0.00  0.00    -0.204 F 
ENDROOT
BRANCH   4   8
ATOM      8  C   UNL d   1     -24.213  22.523  22.236  0.00  0.00     0.259 C 
ATOM      9  O   UNL d   1     -23.521  21.528  22.127  0.00  0.00    -0.267 OA
ATOM     10  N   UNL d   1     -23.642  23.743  22.252  0.00  0.00    -0.320 N 
ATOM     11  H   UNL d   1     -24.183  24.530  22.420  0.00  0.00     0.169 HD
BRANCH  10  12
ATOM     12  C   UNL d   1     -22.267  23.875  22.025  0.00  0.00     0.080 A 
ATOM     13  C   UNL d   1     -21.361  23.589  23.042  0.00  0.00     0.143 A 
ATOM     14  C   UNL d   1     -20.005  23.721  22.812  0.00  0.00     0.045 A 
ATOM     15  F   UNL d   1     -21.808  23.185  24.251  0.00  0.00    -0.204 F 
ATOM     16  C   UNL d   1     -19.548  24.136  21.575  0.00  0.00     0.004 A 
ATOM     17  C   UNL d   1     -20.446  24.426  20.565  0.00  0.00     0.009 A 
ATOM     18  C   UNL d   1     -21.804  24.291  20.784  0.00  0.00    -0.032 A 
ATOM     19  C   UNL d   1     -22.780  24.601  19.680  0.00  0.00     0.050 C 
ENDBRANCH  10  12
ENDBRANCH   4   8
BRANCH   3  20
ATOM     20  O   UNL d   1     -25.675  23.774  24.304  0.00  0.00    -0.341 OA
BRANCH  20  21
ATOM     21  C   UNL d   1     -25.851  25.191  24.248  0.00  0.00     0.158 C 
ATOM     22  C   UNL d   1     -26.585  25.663  25.505  0.00  0.00     0.045 C 
BRANCH  21  23
ATOM     23  C   UNL d   1     -24.504  25.862  24.172  0.00  0.00    -0.029 A 
ATOM     24  C   UNL d   1     -24.150  26.576  23.041  0.00  0.00     0.010 A 
ATOM     25  C   UNL d   1     -22.914  27.192  22.971  0.00  0.00     0.001 A 
ATOM     26  C   UNL d   1     -22.033  27.095  24.032  0.00  0.00     0.000 A 
ATOM     27  C   UNL d   1     -22.387  26.383  25.163  0.00  0.00     0.001 A 
ATOM     28  C   UNL d   1     -23.624  25.771  25.234  0.00  0.00     0.010 A 
ENDBRANCH  21  23
ENDBRANCH  20  21
ENDBRANCH   3  20
BRANCH   1  29
ATOM     29  N   UNL d   1     -29.819  22.022  22.677  0.00  0.00    -0.178 N 
ATOM     30  N   UNL d   1     -30.532  21.620  23.815  0.00  0.00    -0.149 NA
ATOM     31  C   UNL d   1     -31.794  21.628  23.523  0.00  0.00     0.130 A 
ATOM     32  N   UNL d   1     -31.945  22.025  22.218  0.00  0.00    -0.289 N 
ATOM     33  C   UNL d   1     -30.722  22.272  21.705  0.00  0.00     0.351 A 
ATOM     34  C   UNL d   1     -33.218  22.164  21.505  0.00  0.00     0.162 C 
ATOM     35  O   UNL d   1     -30.478  22.649  20.574  0.00  0.00    -0.244 OA
BRANCH  31  36
ATOM     36  C   UNL d   1     -32.913  21.260  24.464  0.00  0.00     0.076 C 
ATOM     37  C   UNL d   1     -32.512  20.028  25.278  0.00  0.00     0.013 C 
ENDBRANCH  31  36
ENDBRANCH   1  29
TORSDOF 7
ENDMDL
