MODEL 1
REMARK VINA RESULT:     -10.6      0.000      0.000
REMARK  6 active torsions:
REMARK  status: ('A' for Active; 'I' for Inactive)
REMARK    1  A    between atoms: O_2  and  C_3 
REMARK    2  A    between atoms: C_7  and  C_8 
REMARK    3  A    between atoms: C_12  and  N_13 
REMARK    4  A    between atoms: N_13  and  C_14 
REMARK    5  A    between atoms: C_19  and  C_20 
REMARK    6  A    between atoms: C_20  and  O_22 
ROOT
ATOM      1  C   UNL d   1     -24.596  23.296  22.524  0.00  0.00    -0.017 A 
ATOM      2  C   UNL d   1     -25.198  24.020  23.553  0.00  0.00     0.057 A 
ATOM      3  C   UNL d   1     -26.395  23.591  24.088  0.00  0.00     0.143 A 
ATOM      4  F   UNL d   1     -26.982  24.294  25.081  0.00  0.00    -0.204 F 
ATOM      5  C   UNL d   1     -26.995  22.429  23.610  0.00  0.00     0.073 A 
ATOM      6  C   UNL d   1     -26.395  21.707  22.586  0.00  0.00     0.040 A 
ATOM      7  C   UNL d   1     -25.202  22.136  22.044  0.00  0.00    -0.049 A 
ATOM      8  C   UNL d   1     -24.552  21.351  20.934  0.00  0.00     0.049 C 
ENDROOT
BRANCH   5   9
ATOM      9  N   UNL d   1     -28.204  21.992  24.157  0.00  0.00    -0.338 N 
ATOM     10  H   UNL d   1     -28.229  21.633  25.058  0.00  0.00     0.167 HD
BRANCH   9  11
ATOM     11  C   UNL d   1     -29.368  22.071  23.413  0.00  0.00     0.144 A 
ATOM     12  C   UNL d   1     -30.608  21.810  24.025  0.00  0.00     0.083 A 
ATOM     13  C   UNL d   1     -31.772  21.902  23.252  0.00  0.00     0.024 A 
ATOM     14  C   UNL d   1     -31.650  22.236  21.916  0.00  0.00     0.020 A 
ATOM     15  C   UNL d   1     -30.394  22.479  21.386  0.00  0.00     0.119 A 
ATOM     16  N   UNL d   1     -29.310  22.393  22.131  0.00  0.00    -0.242 NA
BRANCH  12  17
ATOM     17  C   UNL d   1     -30.680  21.452  25.452  0.00  0.00     0.180 C 
ATOM     18  O   UNL d   1     -31.491  21.995  26.174  0.00  0.00    -0.646 OA
BRANCH  17  19
ATOM     19  O   UNL d   1     -29.847  20.519  25.954  0.00  0.00    -0.773 OA
ATOM     20  H   UNL d   1     -30.243  19.682  26.234  0.00  0.00     0.167 HD
ENDBRANCH  17  19
ENDBRANCH  12  17
ENDBRANCH   9  11
ENDBRANCH   5   9
BRANCH   1  21
ATOM     21  C   UNL d   1     -23.312  23.758  21.942  0.00  0.00    -0.023 A 
ATOM     22  C   UNL d   1     -23.279  24.290  20.655  0.00  0.00     0.012 A 
ATOM     23  C   UNL d   1     -22.083  24.720  20.117  0.00  0.00     0.004 A 
ATOM     24  C   UNL d   1     -20.916  24.624  20.851  0.00  0.00     0.037 A 
ATOM     25  C   UNL d   1     -20.940  24.095  22.134  0.00  0.00     0.069 A 
ATOM     26  C   UNL d   1     -22.137  23.666  22.684  0.00  0.00     0.049 A 
BRANCH  25  27
ATOM     27  O   UNL d   1     -19.790  24.003  22.852  0.00  0.00    -0.356 OA
ATOM     28  C   UNL d   1     -19.659  24.867  23.983  0.00  0.00     0.210 C 
ENDBRANCH  25  27
ENDBRANCH   1  21
TORSDOF 6
ENDMDL
