MODEL 1
REMARK VINA RESULT:      -9.4      0.000      0.000
REMARK  7 active torsions:
REMARK  status: ('A' for Active; 'I' for Inactive)
REMARK    1  A    between atoms: N_4  and  C_5 
REMARK    2  A    between atoms: C_7  and  O_8 
REMARK    3  A    between atoms: O_8  and  C_9 
REMARK    4  A    between atoms: C_9  and  C_11 
REMARK    5  A    between atoms: C_17  and  C_18 
REMARK       I    between atoms: C_18  and  N_20 
REMARK    6  A    between atoms: N_20  and  C_21 
REMARK    7  A    between atoms: N_34  and  C_35 
ROOT
ATOM      1  C   UNL d   1     -28.394  22.132  22.502  0.00  0.00     0.104 A 
ATOM      2  C   UNL d   1     -27.686  22.889  23.426  0.00  0.00     0.073 A 
ATOM      3  C   UNL d   1     -26.314  23.026  23.301  0.00  0.00     0.087 A 
ATOM      4  C   UNL d   1     -25.642  22.391  22.247  0.00  0.00     0.068 A 
ATOM      5  C   UNL d   1     -26.363  21.630  21.321  0.00  0.00     0.064 A 
ATOM      6  C   UNL d   1     -27.729  21.504  21.450  0.00  0.00     0.146 A 
ATOM      7  F   UNL d   1     -28.426  20.770  20.555  0.00  0.00    -0.204 F 
ENDROOT
BRANCH   4   8
ATOM      8  C   UNL d   1     -24.182  22.528  22.112  0.00  0.00     0.259 C 
ATOM      9  O   UNL d   1     -23.471  21.542  22.169  0.00  0.00    -0.267 OA
ATOM     10  N   UNL d   1     -23.632  23.744  21.925  0.00  0.00    -0.318 N 
ATOM     11  H   UNL d   1     -24.201  24.524  21.831  0.00  0.00     0.169 HD
BRANCH  10  12
ATOM     12  C   UNL d   1     -22.240  23.882  21.866  0.00  0.00     0.113 A 
ATOM     13  C   UNL d   1     -21.622  24.213  20.666  0.00  0.00     0.146 A 
ATOM     14  C   UNL d   1     -20.247  24.350  20.613  0.00  0.00     0.045 A 
ATOM     15  F   UNL d   1     -22.364  24.402  19.553  0.00  0.00    -0.204 F 
ATOM     16  C   UNL d   1     -19.486  24.157  21.750  0.00  0.00     0.006 A 
ATOM     17  C   UNL d   1     -20.096  23.827  22.947  0.00  0.00     0.045 A 
ATOM     18  C   UNL d   1     -21.471  23.696  23.011  0.00  0.00     0.146 A 
ATOM     19  F   UNL d   1     -22.068  23.379  24.181  0.00  0.00    -0.204 F 
ENDBRANCH  10  12
ENDBRANCH   4   8
BRANCH   3  20
ATOM     20  O   UNL d   1     -25.621  23.771  24.200  0.00  0.00    -0.341 OA
BRANCH  20  21
ATOM     21  C   UNL d   1     -25.815  25.186  24.158  0.00  0.00     0.158 C 
ATOM     22  C   UNL d   1     -26.593  25.632  25.397  0.00  0.00     0.045 C 
BRANCH  21  23
ATOM     23  C   UNL d   1     -24.475  25.875  24.132  0.00  0.00    -0.029 A 
ATOM     24  C   UNL d   1     -24.048  26.511  22.981  0.00  0.00     0.010 A 
ATOM     25  C   UNL d   1     -22.819  27.144  22.957  0.00  0.00     0.001 A 
ATOM     26  C   UNL d   1     -22.017  27.141  24.083  0.00  0.00     0.000 A 
ATOM     27  C   UNL d   1     -22.445  26.505  25.234  0.00  0.00     0.001 A 
ATOM     28  C   UNL d   1     -23.676  25.877  25.260  0.00  0.00     0.010 A 
ENDBRANCH  21  23
ENDBRANCH  20  21
ENDBRANCH   3  20
BRANCH   1  29
ATOM     29  N   UNL d   1     -29.779  22.000  22.627  0.00  0.00    -0.178 N 
ATOM     30  N   UNL d   1     -30.476  21.619  23.782  0.00  0.00    -0.149 NA
ATOM     31  C   UNL d   1     -31.740  21.610  23.506  0.00  0.00     0.127 A 
ATOM     32  C   UNL d   1     -32.846  21.258  24.466  0.00  0.00     0.093 C 
ATOM     33  N   UNL d   1     -31.910  21.977  22.193  0.00  0.00    -0.280 N 
ATOM     34  C   UNL d   1     -30.694  22.220  21.661  0.00  0.00     0.351 A 
ATOM     35  O   UNL d   1     -30.466  22.572  20.517  0.00  0.00    -0.244 OA
BRANCH  33  36
ATOM     36  C   UNL d   1     -33.191  22.092  21.492  0.00  0.00     0.088 C 
ATOM     37  C   UNL d   1     -33.759  20.694  21.238  0.00  0.00     0.032 C 
ATOM     38  C   UNL d   1     -34.172  22.893  22.351  0.00  0.00     0.032 C 
ENDBRANCH  33  36
ENDBRANCH   1  29
TORSDOF 7
ENDMDL
