MODEL 1
REMARK VINA RESULT:      -9.4      0.000      0.000
REMARK  5 active torsions:
REMARK  status: ('A' for Active; 'I' for Inactive)
REMARK    1  A    between atoms: C_7  and  N_8 
REMARK    2  A    between atoms: C_10  and  C_11 
REMARK    3  A    between atoms: C_16  and  C_17 
REMARK    4  A    between atoms: C_21  and  C_22 
REMARK    5  A    between atoms: C_22  and  O_25 
ROOT
ATOM      1  N   UNL d   1     -29.874  21.797  23.986  0.00  0.00    -0.196 N 
ATOM      2  N   UNL d   1     -29.225  22.102  25.183  0.00  0.00    -0.168 NA
ATOM      3  C   UNL d   1     -27.977  22.461  25.234  0.00  0.00     0.070 A 
ATOM      4  C   UNL d   1     -27.194  22.558  24.001  0.00  0.00     0.007 A 
ATOM      5  C   UNL d   1     -25.854  22.939  24.012  0.00  0.00     0.031 A 
ATOM      6  C   UNL d   1     -25.158  23.015  22.812  0.00  0.00     0.034 A 
ATOM      7  C   UNL d   1     -25.794  22.712  21.600  0.00  0.00     0.130 A 
ATOM      8  F   UNL d   1     -25.102  22.792  20.443  0.00  0.00    -0.205 F 
ATOM      9  C   UNL d   1     -27.108  22.338  21.577  0.00  0.00     0.061 A 
ATOM     10  C   UNL d   1     -27.826  22.255  22.772  0.00  0.00     0.049 A 
ATOM     11  C   UNL d   1     -29.238  21.857  22.799  0.00  0.00     0.279 A 
ATOM     12  O   UNL d   1     -29.825  21.582  21.767  0.00  0.00    -0.265 OA
ENDROOT
BRANCH   6  13
ATOM     13  C   UNL d   1     -23.732  23.419  22.813  0.00  0.00     0.087 A 
ATOM     14  N   UNL d   1     -23.039  23.895  21.757  0.00  0.00    -0.230 NA
ATOM     15  C   UNL d   1     -21.814  24.145  22.126  0.00  0.00     0.140 A 
ATOM     16  N   UNL d   1     -21.677  23.836  23.435  0.00  0.00    -0.345 N 
ATOM     17  C   UNL d   1     -22.887  23.381  23.877  0.00  0.00     0.124 A 
ATOM     18  C   UNL d   1     -20.456  23.971  24.234  0.00  0.00     0.157 C 
BRANCH  15  19
ATOM     19  C   UNL d   1     -20.726  24.689  21.237  0.00  0.00     0.111 C 
ATOM     20  C   UNL d   1     -19.618  23.643  21.090  0.00  0.00     0.054 C 
ATOM     21  C   UNL d   1     -21.307  25.012  19.859  0.00  0.00     0.054 C 
BRANCH  19  22
ATOM     22  O   UNL d   1     -20.186  25.878  21.816  0.00  0.00    -0.383 OA
ATOM     23  H   UNL d   1     -20.088  26.610  21.192  0.00  0.00     0.211 HD
ENDBRANCH  19  22
ENDBRANCH  15  19
ENDBRANCH   6  13
BRANCH   3  24
ATOM     24  C   UNL d   1     -27.336  22.777  26.560  0.00  0.00     0.032 C 
ATOM     25  C   UNL d   1     -28.385  23.365  27.506  0.00  0.00     0.016 C 
ATOM     26  C   UNL d   1     -26.762  21.496  27.168  0.00  0.00     0.016 C 
ENDBRANCH   3  24
BRANCH   1  27
ATOM     27  C   UNL d   1     -31.220  21.419  24.020  0.00  0.00     0.068 A 
ATOM     28  C   UNL d   1     -31.673  20.540  24.995  0.00  0.00    -0.033 A 
ATOM     29  C   UNL d   1     -30.713  19.992  26.020  0.00  0.00     0.050 C 
ATOM     30  C   UNL d   1     -33.004  20.173  25.028  0.00  0.00     0.009 A 
ATOM     31  C   UNL d   1     -33.884  20.672  24.086  0.00  0.00     0.001 A 
ATOM     32  C   UNL d   1     -33.436  21.543  23.109  0.00  0.00     0.002 A 
ATOM     33  C   UNL d   1     -32.107  21.918  23.074  0.00  0.00     0.032 A 
ENDBRANCH   1  27
TORSDOF 5
ENDMDL
