MODEL 1
REMARK VINA RESULT:     -10.8      0.000      0.000
REMARK  3 active torsions:
REMARK  status: ('A' for Active; 'I' for Inactive)
REMARK    1  A    between atoms: C_7  and  N_8 
REMARK    2  A    between atoms: C_16  and  N_17 
REMARK       I    between atoms: N_17  and  C_18 
REMARK    3  A    between atoms: C_18  and  C_20 
ROOT
ATOM      1  N   UNL d   1     -29.530  22.016  23.817  0.00  0.00    -0.237 N 
ATOM      2  N   UNL d   1     -28.879  22.342  25.016  0.00  0.00    -0.179 NA
ATOM      3  C   UNL d   1     -27.597  22.459  24.768  0.00  0.00     0.150 A 
ATOM      4  C   UNL d   1     -27.393  22.212  23.412  0.00  0.00     0.008 A 
ATOM      5  C   UNL d   1     -28.597  21.940  22.850  0.00  0.00     0.046 A 
ATOM      6  C   UNL d   1     -28.797  21.615  21.391  0.00  0.00     0.060 C 
ATOM      7  C   UNL d   1     -27.436  21.242  20.789  0.00  0.00     0.008 C 
ATOM      8  C   UNL d   1     -26.404  22.312  21.154  0.00  0.00     0.030 C 
ATOM      9  C   UNL d   1     -26.089  22.230  22.652  0.00  0.00     0.121 C 
ENDROOT
BRANCH   9  10
ATOM     10  N   UNL d   1     -25.300  23.396  23.056  0.00  0.00    -0.347 N 
ATOM     11  C   UNL d   1     -23.952  23.337  23.036  0.00  0.00     0.270 C 
ATOM     12  O   UNL d   1     -23.394  22.317  22.686  0.00  0.00    -0.266 OA
ATOM     13  H   UNL d   1     -25.745  24.211  23.337  0.00  0.00     0.163 HD
BRANCH  11  14
ATOM     14  C   UNL d   1     -23.154  24.516  23.444  0.00  0.00     0.123 A 
ATOM     15  N   UNL d   1     -21.903  24.353  23.859  0.00  0.00    -0.256 NA
ATOM     16  C   UNL d   1     -21.159  25.374  24.226  0.00  0.00     0.117 A 
ATOM     17  C   UNL d   1     -21.660  26.666  24.200  0.00  0.00     0.019 A 
ATOM     18  C   UNL d   1     -22.963  26.880  23.777  0.00  0.00     0.004 A 
ATOM     19  C   UNL d   1     -23.722  25.786  23.392  0.00  0.00     0.037 A 
ENDBRANCH  11  14
ENDBRANCH   9  10
BRANCH   1  20
ATOM     20  C   UNL d   1     -30.907  21.806  23.656  0.00  0.00     0.064 A 
ATOM     21  C   UNL d   1     -31.605  21.034  24.573  0.00  0.00    -0.033 A 
ATOM     22  C   UNL d   1     -30.884  20.418  25.745  0.00  0.00     0.050 C 
ATOM     23  C   UNL d   1     -32.963  20.834  24.415  0.00  0.00     0.009 A 
ATOM     24  C   UNL d   1     -33.624  21.393  23.337  0.00  0.00     0.001 A 
ATOM     25  C   UNL d   1     -32.930  22.159  22.418  0.00  0.00     0.002 A 
ATOM     26  C   UNL d   1     -31.573  22.367  22.575  0.00  0.00     0.032 A 
ENDBRANCH   1  20
TORSDOF 3
ENDMDL
