MODEL 1
REMARK VINA RESULT:      -9.9      0.000      0.000
REMARK  8 active torsions:
REMARK  status: ('A' for Active; 'I' for Inactive)
REMARK    1  A    between atoms: C_2  and  O_3 
REMARK    2  A    between atoms: C_2  and  C_33 
REMARK    3  A    between atoms: O_3  and  C_4 
REMARK    4  A    between atoms: C_6  and  N_7 
REMARK    5  A    between atoms: C_9  and  C_10 
REMARK    6  A    between atoms: C_10  and  O_13 
REMARK    7  A    between atoms: C_21  and  C_22 
REMARK       I    between atoms: C_22  and  N_24 
REMARK    8  A    between atoms: N_24  and  C_25 
ROOT
ATOM      1  C   UNL d   1     -24.713  23.387  22.692  0.00  0.00     0.087 A 
ATOM      2  C   UNL d   1     -25.970  22.832  22.856  0.00  0.00     0.073 A 
ATOM      3  C   UNL d   1     -26.833  23.339  23.817  0.00  0.00     0.104 A 
ATOM      4  C   UNL d   1     -26.439  24.409  24.622  0.00  0.00     0.146 A 
ATOM      5  F   UNL d   1     -27.285  24.898  25.555  0.00  0.00    -0.204 F 
ATOM      6  C   UNL d   1     -25.191  24.968  24.466  0.00  0.00     0.064 A 
ATOM      7  C   UNL d   1     -24.314  24.463  23.500  0.00  0.00     0.068 A 
ENDROOT
BRANCH   3   8
ATOM      8  N   UNL d   1     -28.099  22.772  23.984  0.00  0.00    -0.178 N 
ATOM      9  C   UNL d   1     -28.501  22.005  25.018  0.00  0.00     0.351 A 
ATOM     10  N   UNL d   1     -29.787  21.669  24.795  0.00  0.00    -0.286 N 
ATOM     11  O   UNL d   1     -27.827  21.678  25.979  0.00  0.00    -0.244 OA
ATOM     12  C   UNL d   1     -30.179  22.229  23.603  0.00  0.00     0.164 A 
ATOM     13  C   UNL d   1     -30.623  20.843  25.670  0.00  0.00     0.163 C 
ATOM     14  N   UNL d   1     -29.185  22.891  23.106  0.00  0.00    -0.146 NA
BRANCH  12  15
ATOM     15  C   UNL d   1     -31.544  22.094  22.979  0.00  0.00     0.112 C 
ATOM     16  C   UNL d   1     -31.408  22.088  21.454  0.00  0.00     0.054 C 
ATOM     17  C   UNL d   1     -32.189  20.784  23.439  0.00  0.00     0.054 C 
BRANCH  15  18
ATOM     18  O   UNL d   1     -32.363  23.194  23.379  0.00  0.00    -0.383 OA
ATOM     19  H   UNL d   1     -33.113  22.943  23.935  0.00  0.00     0.211 HD
ENDBRANCH  15  18
ENDBRANCH  12  15
ENDBRANCH   3   8
BRANCH   1  20
ATOM     20  O   UNL d   1     -23.868  22.893  21.752  0.00  0.00    -0.336 OA
BRANCH  20  21
ATOM     21  C   UNL d   1     -24.020  23.387  20.420  0.00  0.00     0.232 C 
ATOM     22  C   UNL d   1     -22.664  23.857  19.891  0.00  0.00     0.049 C 
BRANCH  21  23
ATOM     23  C   UNL d   1     -24.559  22.272  19.522  0.00  0.00     0.413 C 
ATOM     24  F   UNL d   1     -23.764  21.131  19.665  0.00  0.00    -0.168 F 
ATOM     25  F   UNL d   1     -25.875  21.972  19.889  0.00  0.00    -0.168 F 
ATOM     26  F   UNL d   1     -24.533  22.693  18.187  0.00  0.00    -0.168 F 
ENDBRANCH  21  23
ENDBRANCH  20  21
ENDBRANCH   1  20
BRANCH   7  27
ATOM     27  C   UNL d   1     -22.978  25.059  23.331  0.00  0.00     0.259 C 
ATOM     28  O   UNL d   1     -22.833  26.033  22.617  0.00  0.00    -0.267 OA
ATOM     29  N   UNL d   1     -21.916  24.525  23.965  0.00  0.00    -0.319 N 
ATOM     30  H   UNL d   1     -22.044  23.803  24.600  0.00  0.00     0.169 HD
BRANCH  29  31
ATOM     31  C   UNL d   1     -20.629  25.013  23.710  0.00  0.00     0.096 A 
ATOM     32  C   UNL d   1     -20.110  26.045  24.482  0.00  0.00     0.064 A 
ATOM     33  C   UNL d   1     -18.836  26.520  24.232  0.00  0.00     0.026 A 
ATOM     34 CL   UNL d   1     -21.057  26.731  25.764  0.00  0.00    -0.082 Cl
ATOM     35  C   UNL d   1     -18.083  25.979  23.207  0.00  0.00     0.005 A 
ATOM     36  C   UNL d   1     -18.598  24.955  22.432  0.00  0.00     0.045 A 
ATOM     37  C   UNL d   1     -19.869  24.470  22.680  0.00  0.00     0.144 A 
ATOM     38  F   UNL d   1     -20.370  23.470  21.922  0.00  0.00    -0.204 F 
ENDBRANCH  29  31
ENDBRANCH   7  27
TORSDOF 8
ENDMDL
