MODEL 1
REMARK VINA RESULT:     -10.1      0.000      0.000
REMARK  6 active torsions:
REMARK  status: ('A' for Active; 'I' for Inactive)
REMARK    1  A    between atoms: C_2  and  C_4 
REMARK    2  A    between atoms: N_6  and  C_7 
REMARK    3  A    between atoms: C_21  and  N_22 
REMARK    4  A    between atoms: C_24  and  C_25 
REMARK    5  A    between atoms: C_25  and  O_26 
REMARK    6  A    between atoms: N_27  and  C_28 
ROOT
ATOM      1  C   UNL d   1     -25.808  24.089  23.684  0.00  0.00    -0.004 A 
ATOM      2  C   UNL d   1     -24.523  24.286  23.291  0.00  0.00     0.113 A 
ATOM      3  N   UNL d   1     -24.006  23.684  22.181  0.00  0.00    -0.287 N 
ATOM      4  C   UNL d   1     -24.730  22.857  21.402  0.00  0.00     0.263 A 
ATOM      5  O   UNL d   1     -24.225  22.343  20.421  0.00  0.00    -0.267 OA
ATOM      6  C   UNL d   1     -26.128  22.582  21.744  0.00  0.00     0.047 A 
ATOM      7  C   UNL d   1     -26.921  21.732  20.969  0.00  0.00     0.062 A 
ATOM      8  C   UNL d   1     -28.220  21.505  21.327  0.00  0.00     0.146 A 
ATOM      9  F   UNL d   1     -28.986  20.683  20.576  0.00  0.00    -0.204 F 
ATOM     10  C   UNL d   1     -28.767  22.113  22.461  0.00  0.00     0.103 A 
ATOM     11  C   UNL d   1     -28.000  22.963  23.241  0.00  0.00     0.048 A 
ATOM     12  C   UNL d   1     -26.674  23.200  22.892  0.00  0.00    -0.006 A 
ENDROOT
BRANCH  10  13
ATOM     13  N   UNL d   1     -30.098  21.866  22.807  0.00  0.00    -0.178 N 
ATOM     14  C   UNL d   1     -31.175  22.033  22.011  0.00  0.00     0.351 A 
ATOM     15  N   UNL d   1     -32.263  21.687  22.726  0.00  0.00    -0.283 N 
ATOM     16  O   UNL d   1     -31.166  22.427  20.858  0.00  0.00    -0.244 OA
ATOM     17  C   UNL d   1     -31.850  21.293  23.976  0.00  0.00     0.154 A 
ATOM     18  N   UNL d   1     -30.562  21.394  24.042  0.00  0.00    -0.147 NA
BRANCH  15  19
ATOM     19  C   UNL d   1     -33.648  21.718  22.251  0.00  0.00     0.131 C 
ATOM     20  C   UNL d   1     -33.993  20.379  21.597  0.00  0.00     0.027 C 
ENDBRANCH  15  19
BRANCH  17  21
ATOM     21  C   UNL d   1     -32.751  20.822  25.089  0.00  0.00     0.244 C 
BRANCH  21  22
ATOM     22  O   UNL d   1     -32.137  21.100  26.349  0.00  0.00    -0.393 OA
ATOM     23  H   UNL d   1     -31.417  20.497  26.577  0.00  0.00     0.209 HD
ENDBRANCH  21  22
ENDBRANCH  17  21
ENDBRANCH  10  13
BRANCH   1  24
ATOM     24  C   UNL d   1     -26.330  24.759  24.891  0.00  0.00    -0.059 C 
ATOM     25  C   UNL d   1     -26.181  26.070  25.040  0.00  0.00     0.019 C 
ATOM     26  C   UNL d   1     -27.034  23.955  25.955  0.00  0.00     0.048 C 
ENDBRANCH   1  24
BRANCH   3  27
ATOM     27  C   UNL d   1     -22.671  23.937  21.839  0.00  0.00     0.051 A 
ATOM     28  C   UNL d   1     -21.644  23.449  22.636  0.00  0.00    -0.035 A 
ATOM     29  C   UNL d   1     -20.329  23.695  22.293  0.00  0.00     0.012 A 
ATOM     30  C   UNL d   1     -21.965  22.645  23.869  0.00  0.00     0.050 C 
ATOM     31  C   UNL d   1     -20.033  24.438  21.166  0.00  0.00     0.043 A 
ATOM     32  C   UNL d   1     -21.055  24.931  20.371  0.00  0.00     0.118 A 
ATOM     33  C   UNL d   1     -22.374  24.683  20.705  0.00  0.00     0.072 A 
ATOM     34  F   UNL d   1     -20.764  25.656  19.269  0.00  0.00    -0.206 F 
ENDBRANCH   3  27
TORSDOF 6
ENDMDL
