MODEL 1
REMARK VINA RESULT:      -9.5      0.000      0.000
REMARK  9 active torsions:
REMARK  status: ('A' for Active; 'I' for Inactive)
REMARK    1  A    between atoms: C_2  and  N_3 
REMARK    2  A    between atoms: C_4  and  C_5 
REMARK    3  A    between atoms: C_5  and  O_6 
REMARK    4  A    between atoms: N_8  and  C_9 
REMARK    5  A    between atoms: C_11  and  O_12 
REMARK    6  A    between atoms: O_12  and  C_13 
REMARK    7  A    between atoms: C_13  and  C_15 
REMARK    8  A    between atoms: C_19  and  C_20 
REMARK       I    between atoms: C_20  and  N_22 
REMARK    9  A    between atoms: N_22  and  C_23 
ROOT
ATOM      1  C   UNL d   1     -26.680  23.376  23.599  0.00  0.00     0.197 A 
ATOM      2  N   UNL d   1     -25.821  22.904  22.708  0.00  0.00    -0.201 NA
ATOM      3  C   UNL d   1     -24.601  23.397  22.589  0.00  0.00     0.183 A 
ATOM      4  C   UNL d   1     -24.170  24.441  23.422  0.00  0.00     0.088 A 
ATOM      5  C   UNL d   1     -25.057  24.956  24.379  0.00  0.00     0.068 A 
ATOM      6  C   UNL d   1     -26.324  24.412  24.462  0.00  0.00     0.165 A 
ATOM      7  F   UNL d   1     -27.209  24.879  25.369  0.00  0.00    -0.202 F 
ENDROOT
BRANCH   1   8
ATOM      8  N   UNL d   1     -27.956  22.826  23.680  0.00  0.00    -0.159 N 
ATOM      9  N   UNL d   1     -28.993  22.992  22.752  0.00  0.00    -0.145 NA
ATOM     10  C   UNL d   1     -30.020  22.325  23.171  0.00  0.00     0.154 A 
ATOM     11  N   UNL d   1     -29.701  21.724  24.364  0.00  0.00    -0.283 N 
ATOM     12  C   UNL d   1     -28.425  22.035  24.667  0.00  0.00     0.352 A 
ATOM     13  O   UNL d   1     -27.809  21.670  25.652  0.00  0.00    -0.244 OA
BRANCH  10  14
ATOM     14  C   UNL d   1     -31.350  22.228  22.467  0.00  0.00     0.244 C 
BRANCH  14  15
ATOM     15  O   UNL d   1     -31.149  22.313  21.055  0.00  0.00    -0.393 OA
ATOM     16  H   UNL d   1     -31.420  23.157  20.670  0.00  0.00     0.209 HD
ENDBRANCH  14  15
ENDBRANCH  10  14
BRANCH  11  17
ATOM     17  C   UNL d   1     -30.593  20.881  25.164  0.00  0.00     0.131 C 
ATOM     18  C   UNL d   1     -31.644  21.759  25.848  0.00  0.00     0.027 C 
ENDBRANCH  11  17
ENDBRANCH   1   8
BRANCH   3  19
ATOM     19  O   UNL d   1     -23.758  22.887  21.659  0.00  0.00    -0.319 OA
BRANCH  19  20
ATOM     20  C   UNL d   1     -23.843  23.427  20.340  0.00  0.00     0.234 C 
ATOM     21  C   UNL d   1     -22.445  23.828  19.861  0.00  0.00     0.049 C 
BRANCH  20  22
ATOM     22  C   UNL d   1     -24.425  22.375  19.394  0.00  0.00     0.413 C 
ATOM     23  F   UNL d   1     -23.562  21.276  19.332  0.00  0.00    -0.168 F 
ATOM     24  F   UNL d   1     -25.675  21.962  19.868  0.00  0.00    -0.168 F 
ATOM     25  F   UNL d   1     -24.570  22.927  18.116  0.00  0.00    -0.168 F 
ENDBRANCH  20  22
ENDBRANCH  19  20
ENDBRANCH   3  19
BRANCH   4  26
ATOM     26  C   UNL d   1     -22.809  24.987  23.293  0.00  0.00     0.260 C 
ATOM     27  O   UNL d   1     -22.631  26.047  22.722  0.00  0.00    -0.267 OA
ATOM     28  N   UNL d   1     -21.761  24.314  23.808  0.00  0.00    -0.320 N 
ATOM     29  H   UNL d   1     -21.911  23.512  24.332  0.00  0.00     0.169 HD
BRANCH  28  30
ATOM     30  C   UNL d   1     -20.457  24.773  23.586  0.00  0.00     0.074 A 
ATOM     31  C   UNL d   1     -19.854  25.650  24.486  0.00  0.00     0.063 A 
ATOM     32  C   UNL d   1     -18.561  26.076  24.222  0.00  0.00     0.045 A 
ATOM     33 CL   UNL d   1     -20.700  26.197  25.900  0.00  0.00    -0.082 Cl
ATOM     34  C   UNL d   1     -17.919  25.620  23.087  0.00  0.00     0.118 A 
ATOM     35  N   UNL d   1     -18.518  24.789  22.256  0.00  0.00    -0.271 NA
ATOM     36  C   UNL d   1     -19.744  24.355  22.471  0.00  0.00     0.147 A 
ENDBRANCH  28  30
ENDBRANCH   4  26
TORSDOF 9
ENDMDL
