MODEL 1
REMARK VINA RESULT:     -11.1      0.000      0.000
REMARK  8 active torsions:
REMARK  status: ('A' for Active; 'I' for Inactive)
REMARK    1  A    between atoms: O_2  and  C_3 
REMARK    2  A    between atoms: C_5  and  C_6 
REMARK    3  A    between atoms: C_8  and  C_9 
REMARK    4  A    between atoms: C_9  and  O_11 
REMARK    5  A    between atoms: C_21  and  O_22 
REMARK    6  A    between atoms: O_22  and  C_23 
REMARK    7  A    between atoms: C_23  and  C_24 
REMARK       I    between atoms: C_24  and  N_26 
REMARK    8  A    between atoms: N_26  and  C_27 
ROOT
ATOM      1  C   UNL d   1     -25.570  22.877  22.777  0.00  0.00     0.102 A 
ATOM      2  C   UNL d   1     -26.908  22.781  23.115  0.00  0.00     0.053 A 
ATOM      3  C   UNL d   1     -27.773  22.036  22.315  0.00  0.00    -0.004 A 
ATOM      4  C   UNL d   1     -27.290  21.401  21.172  0.00  0.00     0.017 A 
ATOM      5  C   UNL d   1     -25.956  21.500  20.839  0.00  0.00     0.040 A 
ATOM      6  C   UNL d   1     -25.092  22.236  21.637  0.00  0.00     0.102 A 
ENDROOT
BRANCH   3   7
ATOM      7  C   UNL d   1     -29.206  21.925  22.676  0.00  0.00     0.069 A 
ATOM      8  N   UNL d   1     -30.113  22.066  21.733  0.00  0.00    -0.247 NA
ATOM      9  C   UNL d   1     -31.421  21.976  21.981  0.00  0.00     0.068 A 
ATOM     10  C   UNL d   1     -31.877  21.731  23.299  0.00  0.00     0.010 A 
ATOM     11  C   UNL d   1     -32.368  22.125  20.949  0.00  0.00     0.032 A 
ATOM     12  C   UNL d   1     -30.888  21.577  24.368  0.00  0.00     0.052 A 
ATOM     13  C   UNL d   1     -33.250  21.642  23.557  0.00  0.00     0.015 A 
ATOM     14  C   UNL d   1     -29.550  21.680  24.016  0.00  0.00     0.051 A 
ATOM     15  C   UNL d   1     -34.138  21.791  22.532  0.00  0.00     0.001 A 
ATOM     16  C   UNL d   1     -33.695  22.032  21.233  0.00  0.00     0.002 A 
BRANCH  12  17
ATOM     17  C   UNL d   1     -31.298  21.319  25.763  0.00  0.00     0.177 C 
ATOM     18  O   UNL d   1     -31.589  22.247  26.492  0.00  0.00    -0.646 OA
BRANCH  17  19
ATOM     19  O   UNL d   1     -31.348  20.056  26.228  0.00  0.00    -0.773 OA
ATOM     20  H   UNL d   1     -30.765  19.837  26.969  0.00  0.00     0.167 HD
ENDBRANCH  17  19
ENDBRANCH  12  17
ENDBRANCH   3   7
BRANCH   1  21
ATOM     21  O   UNL d   1     -24.722  23.598  23.559  0.00  0.00    -0.353 OA
ATOM     22  C   UNL d   1     -25.022  24.983  23.737  0.00  0.00     0.210 C 
ENDBRANCH   1  21
BRANCH   6  23
ATOM     23  O   UNL d   1     -23.777  22.331  21.306  0.00  0.00    -0.339 OA
BRANCH  23  24
ATOM     24  C   UNL d   1     -23.407  23.383  20.414  0.00  0.00     0.278 C 
BRANCH  24  25
ATOM     25  C   UNL d   1     -22.436  24.308  21.102  0.00  0.00     0.246 C 
ATOM     26  O   UNL d   1     -22.100  25.343  20.565  0.00  0.00    -0.271 OA
ATOM     27  N   UNL d   1     -21.941  23.986  22.313  0.00  0.00    -0.325 N 
ATOM     28  H   UNL d   1     -22.258  23.192  22.771  0.00  0.00     0.169 HD
BRANCH  27  29
ATOM     29  C   UNL d   1     -20.968  24.798  22.910  0.00  0.00     0.035 A 
ATOM     30  C   UNL d   1     -19.643  24.704  22.509  0.00  0.00     0.032 A 
ATOM     31  C   UNL d   1     -18.684  25.506  23.098  0.00  0.00     0.044 A 
ATOM     32  C   UNL d   1     -19.047  26.402  24.090  0.00  0.00     0.116 A 
ATOM     33  C   UNL d   1     -20.369  26.497  24.492  0.00  0.00     0.044 A 
ATOM     34  F   UNL d   1     -18.109  27.186  24.666  0.00  0.00    -0.206 F 
ATOM     35  C   UNL d   1     -21.330  25.700  23.901  0.00  0.00     0.032 A 
ENDBRANCH  27  29
ENDBRANCH  24  25
ENDBRANCH  23  24
ENDBRANCH   6  23
TORSDOF 8
ENDMDL
