MODEL 1
REMARK VINA RESULT:      -9.1      0.000      0.000
REMARK  5 active torsions:
REMARK  status: ('A' for Active; 'I' for Inactive)
REMARK    1  A    between atoms: C_2  and  C_10 
REMARK    2  A    between atoms: C_3  and  C_4 
REMARK       I    between atoms: C_10  and  N_12 
REMARK    3  A    between atoms: N_12  and  C_13 
REMARK    4  A    between atoms: C_18  and  C_19 
REMARK    5  A    between atoms: C_19  and  O_21 
ROOT
ATOM      1  C   UNL d   1     -26.702  21.983  22.276  0.00  0.00     0.251 C 
ATOM      2  O   UNL d   1     -27.213  20.991  21.789  0.00  0.00    -0.268 OA
ATOM      3  N   UNL d   1     -27.434  22.808  23.050  0.00  0.00    -0.322 N 
ATOM      4  H   UNL d   1     -27.048  23.634  23.381  0.00  0.00     0.169 HD
ENDROOT
BRANCH   3   5
ATOM      5  C   UNL d   1     -28.744  22.474  23.378  0.00  0.00     0.051 A 
ATOM      6  C   UNL d   1     -29.056  22.029  24.672  0.00  0.00     0.064 A 
ATOM      7  C   UNL d   1     -30.377  21.696  24.988  0.00  0.00     0.020 A 
ATOM      8  C   UNL d   1     -31.361  21.805  24.030  0.00  0.00     0.001 A 
ATOM      9  C   UNL d   1     -31.049  22.245  22.753  0.00  0.00     0.002 A 
ATOM     10  C   UNL d   1     -29.750  22.577  22.425  0.00  0.00     0.030 A 
BRANCH   6  11
ATOM     11  C   UNL d   1     -27.999  21.913  25.693  0.00  0.00     0.178 C 
ATOM     12  O   UNL d   1     -27.199  22.816  25.841  0.00  0.00    -0.646 OA
BRANCH  11  13
ATOM     13  O   UNL d   1     -27.920  20.809  26.460  0.00  0.00    -0.773 OA
ATOM     14  H   UNL d   1     -27.880  20.941  27.417  0.00  0.00     0.167 HD
ENDBRANCH  11  13
ENDBRANCH   6  11
ENDBRANCH   3   5
BRANCH   1  15
ATOM     15  C   UNL d   1     -25.292  22.281  22.019  0.00  0.00     0.007 C 
ATOM     16  C   UNL d   1     -24.543  21.522  20.954  0.00  0.00     0.054 C 
ATOM     17  C   UNL d   1     -24.662  23.233  22.738  0.00  0.00     0.023 C 
BRANCH  17  18
ATOM     18  C   UNL d   1     -23.298  23.648  22.374  0.00  0.00    -0.036 A 
ATOM     19  C   UNL d   1     -23.084  24.446  21.245  0.00  0.00     0.011 A 
ATOM     20  C   UNL d   1     -21.803  24.831  20.911  0.00  0.00     0.001 A 
ATOM     21  C   UNL d   1     -20.731  24.429  21.687  0.00  0.00     0.000 A 
ATOM     22  C   UNL d   1     -20.934  23.640  22.806  0.00  0.00     0.001 A 
ATOM     23  C   UNL d   1     -22.210  23.252  23.158  0.00  0.00     0.011 A 
ENDBRANCH  17  18
ENDBRANCH   1  15
TORSDOF 5
ENDMDL
