MODEL 1
REMARK VINA RESULT:     -12.1      0.000      0.000
REMARK  4 active torsions:
REMARK  status: ('A' for Active; 'I' for Inactive)
REMARK    1  A    between atoms: C_2  and  O_3 
REMARK    2  A    between atoms: C_2  and  C_4 
REMARK    3  A    between atoms: C_10  and  C_11 
REMARK    4  A    between atoms: C_14  and  C_15 
ROOT
ATOM      1  C   UNL d   1     -31.327  20.813  24.903  0.00  0.00     0.066 A 
ATOM      2  C   UNL d   1     -32.654  20.936  24.492  0.00  0.00     0.021 A 
ATOM      3  C   UNL d   1     -32.969  21.663  23.358  0.00  0.00     0.003 A 
ATOM      4  C   UNL d   1     -31.980  22.276  22.617  0.00  0.00     0.034 A 
ATOM      5  C   UNL d   1     -30.642  22.167  23.007  0.00  0.00     0.087 A 
ATOM      6  N   UNL d   1     -29.482  22.643  22.491  0.00  0.00    -0.228 NA
ATOM      7  C   UNL d   1     -28.478  22.258  23.243  0.00  0.00     0.142 A 
ATOM      8  N   UNL d   1     -28.945  21.503  24.286  0.00  0.00    -0.337 N 
ATOM      9  H   UNL d   1     -28.410  21.094  24.984  0.00  0.00     0.167 HD
ATOM     10  C   UNL d   1     -30.313  21.431  24.159  0.00  0.00     0.080 A 
ENDROOT
BRANCH   7  11
ATOM     11  C   UNL d   1     -27.058  22.587  22.999  0.00  0.00     0.049 A 
ATOM     12  C   UNL d   1     -26.332  21.881  22.034  0.00  0.00     0.131 A 
ATOM     13  C   UNL d   1     -25.006  22.190  21.808  0.00  0.00     0.055 A 
ATOM     14  F   UNL d   1     -26.928  20.898  21.324  0.00  0.00    -0.205 F 
ATOM     15  C   UNL d   1     -24.393  23.205  22.541  0.00  0.00    -0.020 A 
ATOM     16  C   UNL d   1     -25.118  23.909  23.503  0.00  0.00     0.013 A 
ATOM     17  C   UNL d   1     -26.442  23.606  23.728  0.00  0.00     0.019 A 
BRANCH  15  18
ATOM     18  C   UNL d   1     -22.969  23.537  22.299  0.00  0.00     0.013 A 
ATOM     19  C   UNL d   1     -22.586  24.158  21.109  0.00  0.00     0.127 A 
ATOM     20  C   UNL d   1     -21.256  24.470  20.893  0.00  0.00     0.043 A 
ATOM     21  F   UNL d   1     -23.513  24.458  20.173  0.00  0.00    -0.205 F 
ATOM     22  C   UNL d   1     -20.307  24.159  21.849  0.00  0.00     0.003 A 
ATOM     23  C   UNL d   1     -20.680  23.538  23.028  0.00  0.00     0.001 A 
ATOM     24  C   UNL d   1     -22.005  23.226  23.258  0.00  0.00     0.015 A 
ENDBRANCH  15  18
ENDBRANCH   7  11
BRANCH   1  25
ATOM     25  C   UNL d   1     -30.993  20.039  26.112  0.00  0.00     0.178 C 
ATOM     26  O   UNL d   1     -30.633  20.613  27.121  0.00  0.00    -0.646 OA
BRANCH  25  27
ATOM     27  O   UNL d   1     -31.087  18.694  26.098  0.00  0.00    -0.773 OA
ATOM     28  H   UNL d   1     -30.732  18.238  25.322  0.00  0.00     0.167 HD
ENDBRANCH  25  27
ENDBRANCH   1  25
TORSDOF 4
ENDMDL
