MODEL 1
REMARK VINA RESULT:     -12.6      0.000      0.000
REMARK  4 active torsions:
REMARK  status: ('A' for Active; 'I' for Inactive)
REMARK       I    between atoms: N_1  and  C_2 
REMARK    1  A    between atoms: C_2  and  C_4 
REMARK    2  A    between atoms: C_11  and  C_12 
REMARK    3  A    between atoms: C_15  and  C_16 
REMARK    4  A    between atoms: C_19  and  C_20 
REMARK       I    between atoms: C_20  and  N_22 
ROOT
ATOM      1  C   UNL d   1     -27.893  22.375  23.531  0.00  0.00     0.010 A 
ATOM      2  C   UNL d   1     -27.159  21.874  22.453  0.00  0.00     0.016 A 
ATOM      3  C   UNL d   1     -25.851  22.262  22.273  0.00  0.00     0.013 A 
ATOM      4  C   UNL d   1     -25.258  23.154  23.168  0.00  0.00    -0.026 A 
ATOM      5  C   UNL d   1     -25.989  23.651  24.247  0.00  0.00     0.013 A 
ATOM      6  C   UNL d   1     -27.299  23.268  24.425  0.00  0.00     0.016 A 
ENDROOT
BRANCH   1   7
ATOM      7  C   UNL d   1     -29.299  21.960  23.724  0.00  0.00     0.139 A 
ATOM      8  N   UNL d   1     -29.794  21.355  24.847  0.00  0.00    -0.338 N 
ATOM      9  C   UNL d   1     -31.140  21.133  24.627  0.00  0.00     0.064 A 
ATOM     10  H   UNL d   1     -29.294  21.126  25.647  0.00  0.00     0.167 HD
ATOM     11  C   UNL d   1     -32.155  20.565  25.382  0.00  0.00     0.032 A 
ATOM     12  C   UNL d   1     -31.412  21.627  23.339  0.00  0.00     0.101 A 
ATOM     13  C   UNL d   1     -33.437  20.484  24.872  0.00  0.00     0.003 A 
ATOM     14  C   UNL d   1     -33.726  20.963  23.608  0.00  0.00     0.020 A 
ATOM     15  C   UNL d   1     -32.726  21.538  22.828  0.00  0.00     0.062 A 
ATOM     16  N   UNL d   1     -30.262  22.118  22.846  0.00  0.00    -0.227 NA
BRANCH  15  17
ATOM     17  C   UNL d   1     -33.035  22.050  21.482  0.00  0.00     0.251 C 
ATOM     18  N   UNL d   1     -32.080  22.066  20.530  0.00  0.00    -0.366 N 
ATOM     19  H   UNL d   1     -31.189  21.740  20.733  0.00  0.00     0.159 HD
ATOM     20  H   UNL d   1     -32.284  22.404  19.644  0.00  0.00     0.159 HD
ATOM     21  O   UNL d   1     -34.152  22.459  21.228  0.00  0.00    -0.268 OA
ENDBRANCH  15  17
ENDBRANCH   1   7
BRANCH   4  22
ATOM     22  C   UNL d   1     -23.848  23.570  22.974  0.00  0.00    -0.026 A 
ATOM     23  C   UNL d   1     -22.816  22.823  23.542  0.00  0.00     0.013 A 
ATOM     24  C   UNL d   1     -21.507  23.209  23.362  0.00  0.00     0.018 A 
ATOM     25  C   UNL d   1     -21.212  24.349  22.611  0.00  0.00     0.032 A 
ATOM     26  C   UNL d   1     -22.246  25.096  22.042  0.00  0.00     0.018 A 
ATOM     27  C   UNL d   1     -23.555  24.709  22.222  0.00  0.00     0.013 A 
BRANCH  25  28
ATOM     28  C   UNL d   1     -19.807  24.763  22.416  0.00  0.00     0.253 C 
ATOM     29  O   UNL d   1     -19.176  24.343  21.466  0.00  0.00    -0.267 OA
ATOM     30  N   UNL d   1     -19.226  25.608  23.291  0.00  0.00    -0.348 N 
ATOM     31  C   UNL d   1     -17.885  26.193  23.155  0.00  0.00     0.126 C 
ATOM     32  C   UNL d   1     -19.835  26.103  24.540  0.00  0.00     0.126 C 
ATOM     33  C   UNL d   1     -17.640  27.071  24.401  0.00  0.00     0.021 C 
ATOM     34  C   UNL d   1     -18.630  26.482  25.441  0.00  0.00     0.021 C 
ENDBRANCH  25  28
ENDBRANCH   4  22
TORSDOF 4
ENDMDL
