MODEL 1
REMARK VINA RESULT:     -10.2      0.000      0.000
REMARK  6 active torsions:
REMARK  status: ('A' for Active; 'I' for Inactive)
REMARK    1  A    between atoms: C_2  and  O_3 
REMARK    2  A    between atoms: C_2  and  C_31 
REMARK    3  A    between atoms: O_3  and  C_4 
REMARK    4  A    between atoms: C_6  and  N_7 
REMARK    5  A    between atoms: C_20  and  C_21 
REMARK       I    between atoms: C_21  and  N_23 
REMARK    6  A    between atoms: N_23  and  C_24 
ROOT
ATOM      1  C   UNL d   1     -24.552  23.518  22.858  0.00  0.00     0.087 A 
ATOM      2  C   UNL d   1     -25.802  22.938  22.989  0.00  0.00     0.073 A 
ATOM      3  C   UNL d   1     -26.721  23.464  23.888  0.00  0.00     0.104 A 
ATOM      4  C   UNL d   1     -26.385  24.571  24.667  0.00  0.00     0.146 A 
ATOM      5  F   UNL d   1     -27.283  25.074  25.543  0.00  0.00    -0.204 F 
ATOM      6  C   UNL d   1     -25.143  25.152  24.548  0.00  0.00     0.064 A 
ATOM      7  C   UNL d   1     -24.213  24.631  23.642  0.00  0.00     0.068 A 
ENDROOT
BRANCH   7   8
ATOM      8  C   UNL d   1     -22.882  25.249  23.513  0.00  0.00     0.259 C 
ATOM      9  O   UNL d   1     -22.744  26.260  22.849  0.00  0.00    -0.267 OA
ATOM     10  N   UNL d   1     -21.819  24.697  24.129  0.00  0.00    -0.320 N 
ATOM     11  H   UNL d   1     -21.940  23.929  24.709  0.00  0.00     0.169 HD
BRANCH  10  12
ATOM     12  C   UNL d   1     -20.540  25.231  23.933  0.00  0.00     0.073 A 
ATOM     13  C   UNL d   1     -20.034  26.171  24.823  0.00  0.00     0.143 A 
ATOM     14  C   UNL d   1     -18.767  26.693  24.628  0.00  0.00     0.044 A 
ATOM     15  F   UNL d   1     -20.774  26.570  25.880  0.00  0.00    -0.204 F 
ATOM     16  C   UNL d   1     -18.012  26.288  23.543  0.00  0.00     0.003 A 
ATOM     17  C   UNL d   1     -18.516  25.358  22.653  0.00  0.00     0.002 A 
ATOM     18  C   UNL d   1     -19.778  24.828  22.845  0.00  0.00     0.033 A 
ENDBRANCH  10  12
ENDBRANCH   7   8
BRANCH   1  19
ATOM     19  O   UNL d   1     -23.654  23.008  21.978  0.00  0.00    -0.336 OA
BRANCH  19  20
ATOM     20  C   UNL d   1     -23.811  23.374  20.606  0.00  0.00     0.232 C 
ATOM     21  C   UNL d   1     -24.150  22.130  19.782  0.00  0.00     0.049 C 
BRANCH  20  22
ATOM     22  C   UNL d   1     -22.509  23.989  20.089  0.00  0.00     0.413 C 
ATOM     23  F   UNL d   1     -21.474  23.713  20.990  0.00  0.00    -0.168 F 
ATOM     24  F   UNL d   1     -22.197  23.442  18.840  0.00  0.00    -0.168 F 
ATOM     25  F   UNL d   1     -22.663  25.374  19.966  0.00  0.00    -0.168 F 
ENDBRANCH  20  22
ENDBRANCH  19  20
ENDBRANCH   1  19
BRANCH   3  26
ATOM     26  N   UNL d   1     -27.983  22.879  24.014  0.00  0.00    -0.178 N 
ATOM     27  C   UNL d   1     -28.398  22.084  25.024  0.00  0.00     0.351 A 
ATOM     28  N   UNL d   1     -29.678  21.760  24.778  0.00  0.00    -0.284 N 
ATOM     29  O   UNL d   1     -27.734  21.725  25.980  0.00  0.00    -0.244 OA
ATOM     30  C   UNL d   1     -30.048  22.332  23.578  0.00  0.00     0.131 A 
ATOM     31  C   UNL d   1     -30.575  20.961  25.621  0.00  0.00     0.135 C 
ATOM     32  N   UNL d   1     -29.052  23.006  23.114  0.00  0.00    -0.149 NA
ATOM     33  C   UNL d   1     -31.411  22.158  22.950  0.00  0.00     0.081 C 
ATOM     34  C   UNL d   1     -32.376  21.671  24.039  0.00  0.00     0.009 C 
ATOM     35  C   UNL d   1     -31.750  20.476  24.764  0.00  0.00     0.021 C 
ENDBRANCH   3  26
TORSDOF 6
ENDMDL
