MODEL 1
REMARK VINA RESULT:     -11.2      0.000      0.000
REMARK  4 active torsions:
REMARK  status: ('A' for Active; 'I' for Inactive)
REMARK    1  A    between atoms: C_2  and  O_3 
REMARK    2  A    between atoms: C_2  and  C_4 
REMARK    3  A    between atoms: C_10  and  C_11 
REMARK    4  A    between atoms: C_14  and  C_15 
ROOT
ATOM      1  C   UNL d   1     -32.477  21.673  22.803  0.00  0.00     0.085 A 
ATOM      2  C   UNL d   1     -33.435  21.199  23.695  0.00  0.00     0.024 A 
ATOM      3  C   UNL d   1     -33.044  20.840  24.986  0.00  0.00     0.020 A 
ATOM      4  C   UNL d   1     -31.754  20.946  25.382  0.00  0.00     0.120 A 
ATOM      5  N   UNL d   1     -30.788  21.403  24.546  0.00  0.00    -0.224 N 
ATOM      6  N   UNL d   1     -29.407  21.601  24.695  0.00  0.00    -0.145 NA
ATOM      7  C   UNL d   1     -28.960  22.073  23.546  0.00  0.00     0.182 A 
ATOM      8  N   UNL d   1     -29.974  22.174  22.684  0.00  0.00    -0.206 NA
ATOM      9  C   UNL d   1     -31.091  21.775  23.265  0.00  0.00     0.169 A 
ENDROOT
BRANCH   7  10
ATOM     10  C   UNL d   1     -27.549  22.430  23.258  0.00  0.00     0.013 A 
ATOM     11  C   UNL d   1     -26.873  21.806  22.209  0.00  0.00     0.016 A 
ATOM     12  C   UNL d   1     -25.565  22.140  21.936  0.00  0.00     0.013 A 
ATOM     13  C   UNL d   1     -24.912  23.094  22.718  0.00  0.00    -0.026 A 
ATOM     14  C   UNL d   1     -25.587  23.718  23.767  0.00  0.00     0.013 A 
ATOM     15  C   UNL d   1     -26.898  23.387  24.034  0.00  0.00     0.016 A 
BRANCH  13  16
ATOM     16  C   UNL d   1     -23.502  23.450  22.428  0.00  0.00    -0.026 A 
ATOM     17  C   UNL d   1     -23.144  23.918  21.166  0.00  0.00     0.012 A 
ATOM     18  C   UNL d   1     -21.831  24.252  20.903  0.00  0.00     0.001 A 
ATOM     19  C   UNL d   1     -20.871  24.124  21.891  0.00  0.00     0.000 A 
ATOM     20  C   UNL d   1     -21.221  23.660  23.147  0.00  0.00     0.001 A 
ATOM     21  C   UNL d   1     -22.530  23.323  23.420  0.00  0.00     0.012 A 
ENDBRANCH  13  16
ENDBRANCH   7  10
BRANCH   1  22
ATOM     22  C   UNL d   1     -32.847  22.062  21.435  0.00  0.00     0.180 C 
ATOM     23  O   UNL d   1     -33.994  22.376  21.181  0.00  0.00    -0.646 OA
BRANCH  22  24
ATOM     24  O   UNL d   1     -31.915  22.071  20.460  0.00  0.00    -0.773 OA
ATOM     25  H   UNL d   1     -31.175  21.456  20.555  0.00  0.00     0.167 HD
ENDBRANCH  22  24
ENDBRANCH   1  22
TORSDOF 4
ENDMDL
