MODEL 1
REMARK VINA RESULT:      -8.8      0.000      0.000
REMARK  4 active torsions:
REMARK  status: ('A' for Active; 'I' for Inactive)
REMARK    1  A    between atoms: C_2  and  O_3 
REMARK    2  A    between atoms: C_4  and  C_7 
REMARK       I    between atoms: C_7  and  N_9 
REMARK    3  A    between atoms: N_9  and  C_10 
REMARK    4  A    between atoms: C_13  and  C_14 
ROOT
ATOM      1  C   UNL d   1     -33.591  21.565  23.176  0.00  0.00     0.077 C 
ATOM      2  C   UNL d   1     -32.204  21.898  22.687  0.00  0.00     0.065 C 
ATOM      3  C   UNL d   1     -31.179  22.026  23.577  0.00  0.00     0.141 C 
ATOM      4  C   UNL d   1     -31.421  21.844  24.977  0.00  0.00     0.107 C 
ATOM      5  N   UNL d   1     -31.610  21.700  26.088  0.00  0.00    -0.191 NA
ENDROOT
BRANCH   3   6
ATOM      6  C   UNL d   1     -29.827  22.351  23.100  0.00  0.00     0.269 C 
ATOM      7  O   UNL d   1     -29.674  23.183  22.227  0.00  0.00    -0.266 OA
ATOM      8  N   UNL d   1     -28.757  21.727  23.631  0.00  0.00    -0.322 N 
ATOM      9  H   UNL d   1     -28.883  21.016  24.279  0.00  0.00     0.169 HD
BRANCH   8  10
ATOM     10  C   UNL d   1     -27.467  22.100  23.243  0.00  0.00     0.035 A 
ATOM     11  C   UNL d   1     -26.876  21.513  22.131  0.00  0.00     0.030 A 
ATOM     12  C   UNL d   1     -25.601  21.884  21.752  0.00  0.00     0.018 A 
ATOM     13  C   UNL d   1     -24.912  22.839  22.478  0.00  0.00     0.048 A 
ATOM     14  C   UNL d   1     -25.497  23.424  23.586  0.00  0.00     0.018 A 
ATOM     15  C   UNL d   1     -26.774  23.061  23.967  0.00  0.00     0.030 A 
BRANCH  13  16
ATOM     16  C   UNL d   1     -23.521  23.240  22.060  0.00  0.00     0.417 C 
ATOM     17  F   UNL d   1     -23.394  24.631  22.140  0.00  0.00    -0.166 F 
ATOM     18  F   UNL d   1     -22.587  22.636  22.909  0.00  0.00    -0.166 F 
ATOM     19  F   UNL d   1     -23.291  22.826  20.744  0.00  0.00    -0.166 F 
ENDBRANCH  13  16
ENDBRANCH   8  10
ENDBRANCH   3   6
BRANCH   2  20
ATOM     20  O   UNL d   1     -31.979  22.069  21.373  0.00  0.00    -0.364 OA
ATOM     21  H   UNL d   1     -32.753  22.182  20.806  0.00  0.00     0.217 HD
ENDBRANCH   2  20
TORSDOF 4
ENDMDL
