MODEL 1
REMARK VINA RESULT:      -9.7      0.000      0.000
REMARK  6 active torsions:
REMARK  status: ('A' for Active; 'I' for Inactive)
REMARK    1  A    between atoms: C_2  and  OXT_3 
REMARK    2  A    between atoms: C_2  and  CA_4 
REMARK    3  A    between atoms: C_13  and  C_14 
REMARK    4  A    between atoms: C_14  and  C_15 
REMARK    5  A    between atoms: C_15  and  C_16 
REMARK    6  A    between atoms: C_19  and  C_20 
ROOT
ATOM      1  CA  UNL d   1     -32.285  20.682  24.381  0.00  0.00     0.122 A 
ATOM      2  N   UNL d   1     -32.556  19.551  25.121  0.00  0.00    -0.302 N 
ATOM      3  H   UNL d   1     -33.367  19.049  24.944  0.00  0.00     0.171 HD
ATOM      4  C   UNL d   1     -31.717  19.132  26.083  0.00  0.00     0.327 A 
ATOM      5  O   UNL d   1     -31.993  18.130  26.713  0.00  0.00    -0.247 OA
ATOM      6  N   UNL d   1     -30.580  19.792  26.366  0.00  0.00    -0.275 N 
ATOM      7  H   UNL d   1     -29.995  19.463  27.067  0.00  0.00     0.173 HD
ATOM      8  C   UNL d   1     -30.245  20.903  25.679  0.00  0.00     0.258 A 
ATOM      9  O   UNL d   1     -29.214  21.499  25.931  0.00  0.00    -0.267 OA
ATOM     10  C   UNL d   1     -31.149  21.385  24.628  0.00  0.00     0.044 A 
ENDROOT
BRANCH  10  11
ATOM     11  C   UNL d   1     -30.822  22.625  23.836  0.00  0.00     0.051 C 
BRANCH  11  12
ATOM     12  C   UNL d   1     -30.491  22.237  22.394  0.00  0.00     0.043 C 
BRANCH  12  13
ATOM     13  C   UNL d   1     -28.995  22.168  22.222  0.00  0.00    -0.058 A 
ATOM     14  C   UNL d   1     -28.455  21.543  21.113  0.00  0.00     0.008 A 
ATOM     15  C   UNL d   1     -27.083  21.479  20.957  0.00  0.00     0.017 A 
ATOM     16  C   UNL d   1     -26.251  22.045  21.905  0.00  0.00     0.047 A 
ATOM     17  C   UNL d   1     -26.792  22.665  23.017  0.00  0.00     0.017 A 
ATOM     18  C   UNL d   1     -28.164  22.728  23.173  0.00  0.00     0.008 A 
BRANCH  16  19
ATOM     19  C   UNL d   1     -24.756  21.981  21.731  0.00  0.00     0.417 C 
ATOM     20  F   UNL d   1     -24.381  22.756  20.628  0.00  0.00    -0.166 F 
ATOM     21  F   UNL d   1     -24.131  22.475  22.881  0.00  0.00    -0.166 F 
ATOM     22  F   UNL d   1     -24.368  20.654  21.523  0.00  0.00    -0.166 F 
ENDBRANCH  16  19
ENDBRANCH  12  13
ENDBRANCH  11  12
ENDBRANCH  10  11
BRANCH   1  23
ATOM     23  C   UNL d   1     -33.225  21.127  23.324  0.00  0.00     0.194 C 
ATOM     24  O   UNL d   1     -33.482  20.395  22.391  0.00  0.00    -0.645 OA
BRANCH  23  25
ATOM     25  OXT UNL d   1     -33.794  22.346  23.400  0.00  0.00    -0.772 OA
ATOM     26  HXT UNL d   1     -34.760  22.382  23.351  0.00  0.00     0.167 HD
ENDBRANCH  23  25
ENDBRANCH   1  23
TORSDOF 6
ENDMDL
