MODEL 1
REMARK VINA RESULT:      -7.5      0.000      0.000
REMARK  5 active torsions:
REMARK  status: ('A' for Active; 'I' for Inactive)
REMARK    1  A    between atoms: C_2  and  C_3 
REMARK    2  A    between atoms: C_7  and  C_8 
REMARK    3  A    between atoms: C_8  and  S_9 
REMARK    4  A    between atoms: N_10  and  C_11 
REMARK    5  A    between atoms: C_14  and  N_15 
ROOT
ATOM      1  C   UNL d   1     -22.035  23.987  22.237  0.00  0.00     0.105 C 
ATOM      2  N   UNL d   1     -22.625  23.054  22.948  0.00  0.00    -0.241 NA
ENDROOT
BRANCH   1   3
ATOM      3  C   UNL d   1     -20.618  24.316  22.482  0.00  0.00     0.051 A 
ATOM      4  C   UNL d   1     -20.070  24.946  23.570  0.00  0.00     0.093 A 
ATOM      5  O   UNL d   1     -18.753  25.015  23.336  0.00  0.00    -0.217 OA
ATOM      6  N   UNL d   1     -18.457  24.527  22.272  0.00  0.00    -0.140 NA
ATOM      7  C   UNL d   1     -19.494  24.062  21.642  0.00  0.00     0.163 A 
BRANCH   4   8
ATOM      8  C   UNL d   1     -20.801  25.454  24.786  0.00  0.00     0.064 C 
ATOM      9  C   UNL d   1     -21.453  26.799  24.464  0.00  0.00     0.012 C 
ENDBRANCH   4   8
ENDBRANCH   1   3
BRANCH   1  10
ATOM     10  S   UNL d   1     -22.936  24.846  20.989  0.00  0.00    -0.122 SA
ATOM     11  H   UNL d   1     -22.730  26.176  21.410  0.00  0.00     0.108 HD
ENDBRANCH   1  10
BRANCH   2  12
ATOM     12  C   UNL d   1     -23.941  22.749  22.721  0.00  0.00     0.058 A 
ATOM     13  C   UNL d   1     -24.941  23.341  23.495  0.00  0.00     0.034 A 
ATOM     14  C   UNL d   1     -26.264  23.027  23.267  0.00  0.00     0.031 A 
ATOM     15  C   UNL d   1     -26.604  22.126  22.264  0.00  0.00     0.029 A 
ATOM     16  C   UNL d   1     -25.611  21.540  21.488  0.00  0.00     0.031 A 
ATOM     17  C   UNL d   1     -24.286  21.849  21.711  0.00  0.00     0.034 A 
BRANCH  15  18
ATOM     18  N   UNL d   1     -27.946  21.810  22.036  0.00  0.00    -0.390 N 
ATOM     19  C   UNL d   1     -28.939  22.021  23.093  0.00  0.00     0.149 C 
ATOM     20  C   UNL d   1     -28.361  21.268  20.739  0.00  0.00     0.149 C 
ENDBRANCH  15  18
ENDBRANCH   2  12
TORSDOF 5
ENDMDL
