MODEL 1
REMARK VINA RESULT:      -9.6      0.000      0.000
REMARK  8 active torsions:
REMARK  status: ('A' for Active; 'I' for Inactive)
REMARK    1  A    between atoms: C_2  and  O_3 
REMARK    2  A    between atoms: C_4  and  C_7 
REMARK       I    between atoms: C_7  and  N_9 
REMARK    3  A    between atoms: N_9  and  C_10 
REMARK    4  A    between atoms: C_12  and  O_13 
REMARK    5  A    between atoms: O_13  and  C_14 
REMARK    6  A    between atoms: C_14  and  C_16 
REMARK    7  A    between atoms: C_20  and  C_21 
REMARK       I    between atoms: C_21  and  N_23 
REMARK    8  A    between atoms: N_23  and  C_24 
ROOT
ATOM      1  C   UNL d   1     -32.644  21.560  22.930  0.00  0.00     0.077 C 
ATOM      2  C   UNL d   1     -31.261  22.090  22.654  0.00  0.00     0.065 C 
ATOM      3  C   UNL d   1     -30.374  22.251  23.676  0.00  0.00     0.141 C 
ATOM      4  C   UNL d   1     -30.758  21.916  25.016  0.00  0.00     0.107 C 
ATOM      5  N   UNL d   1     -31.062  21.652  26.077  0.00  0.00    -0.191 NA
ENDROOT
BRANCH   3   6
ATOM      6  C   UNL d   1     -29.025  22.767  23.406  0.00  0.00     0.269 C 
ATOM      7  O   UNL d   1     -28.738  23.162  22.291  0.00  0.00    -0.266 OA
ATOM      8  N   UNL d   1     -28.107  22.804  24.392  0.00  0.00    -0.320 N 
ATOM      9  H   UNL d   1     -28.316  22.433  25.264  0.00  0.00     0.169 HD
BRANCH   8  10
ATOM     10  C   UNL d   1     -26.856  23.374  24.159  0.00  0.00     0.076 A 
ATOM     11  C   UNL d   1     -26.465  24.507  24.873  0.00  0.00     0.144 A 
ATOM     12  C   UNL d   1     -25.232  25.076  24.647  0.00  0.00     0.064 A 
ATOM     13  F   UNL d   1     -27.300  25.049  25.785  0.00  0.00    -0.204 F 
ATOM     14  C   UNL d   1     -24.366  24.515  23.701  0.00  0.00     0.068 A 
ATOM     15  C   UNL d   1     -24.764  23.378  22.982  0.00  0.00     0.087 A 
ATOM     16  C   UNL d   1     -26.003  22.811  23.220  0.00  0.00     0.070 A 
BRANCH  14  17
ATOM     17  C   UNL d   1     -23.046  25.120  23.459  0.00  0.00     0.259 C 
ATOM     18  O   UNL d   1     -22.938  26.058  22.693  0.00  0.00    -0.267 OA
ATOM     19  N   UNL d   1     -21.956  24.634  24.086  0.00  0.00    -0.319 N 
ATOM     20  H   UNL d   1     -22.053  23.944  24.762  0.00  0.00     0.169 HD
BRANCH  19  21
ATOM     21  C   UNL d   1     -20.686  25.129  23.767  0.00  0.00     0.096 A 
ATOM     22  C   UNL d   1     -20.165  26.211  24.463  0.00  0.00     0.064 A 
ATOM     23  C   UNL d   1     -18.907  26.694  24.149  0.00  0.00     0.026 A 
ATOM     24 CL   UNL d   1     -21.088  26.956  25.731  0.00  0.00    -0.082 Cl
ATOM     25  C   UNL d   1     -18.173  26.106  23.136  0.00  0.00     0.005 A 
ATOM     26  C   UNL d   1     -18.690  25.030  22.436  0.00  0.00     0.045 A 
ATOM     27  C   UNL d   1     -19.944  24.539  22.749  0.00  0.00     0.144 A 
ATOM     28  F   UNL d   1     -20.450  23.489  22.065  0.00  0.00    -0.204 F 
ENDBRANCH  19  21
ENDBRANCH  14  17
BRANCH  15  29
ATOM     29  O   UNL d   1     -23.931  22.833  22.058  0.00  0.00    -0.336 OA
BRANCH  29  30
ATOM     30  C   UNL d   1     -24.171  23.169  20.690  0.00  0.00     0.232 C 
ATOM     31  C   UNL d   1     -22.862  23.616  20.038  0.00  0.00     0.049 C 
BRANCH  30  32
ATOM     32  C   UNL d   1     -24.716  21.945  19.953  0.00  0.00     0.413 C 
ATOM     33  F   UNL d   1     -24.283  20.781  20.597  0.00  0.00    -0.168 F 
ATOM     34  F   UNL d   1     -26.115  21.985  19.954  0.00  0.00    -0.168 F 
ATOM     35  F   UNL d   1     -24.251  21.948  18.634  0.00  0.00    -0.168 F 
ENDBRANCH  30  32
ENDBRANCH  29  30
ENDBRANCH  15  29
ENDBRANCH   8  10
ENDBRANCH   3   6
BRANCH   2  36
ATOM     36  O   UNL d   1     -30.901  22.403  21.397  0.00  0.00    -0.364 OA
ATOM     37  H   UNL d   1     -30.532  21.692  20.855  0.00  0.00     0.217 HD
ENDBRANCH   2  36
TORSDOF 8
ENDMDL
