MODEL 1
REMARK VINA RESULT:      -9.5      0.000      0.000
REMARK  6 active torsions:
REMARK  status: ('A' for Active; 'I' for Inactive)
REMARK    1  A    between atoms: C_2  and  N_3 
REMARK    2  A    between atoms: C_4  and  C_5 
REMARK    3  A    between atoms: C_5  and  O_6 
REMARK    4  A    between atoms: N_8  and  C_9 
REMARK    5  A    between atoms: C_12  and  C_13 
REMARK    6  A    between atoms: C_17  and  C_18 
ROOT
ATOM      1  C   UNL d   1     -28.711  22.135  22.354  0.00  0.00     0.105 A 
ATOM      2  C   UNL d   1     -28.023  23.030  23.149  0.00  0.00     0.065 A 
ATOM      3  C   UNL d   1     -26.645  23.206  22.949  0.00  0.00     0.051 A 
ATOM      4  C   UNL d   1     -25.941  24.108  23.757  0.00  0.00    -0.026 A 
ATOM      5  C   UNL d   1     -24.587  24.288  23.561  0.00  0.00     0.027 A 
ATOM      6  C   UNL d   1     -23.941  23.562  22.555  0.00  0.00     0.044 A 
ATOM      7  C   UNL d   1     -24.676  22.666  21.765  0.00  0.00     0.263 A 
ATOM      8  O   UNL d   1     -24.114  22.030  20.886  0.00  0.00    -0.267 OA
ATOM      9  N   UNL d   1     -25.999  22.500  21.968  0.00  0.00    -0.285 N 
ATOM     10  C   UNL d   1     -26.690  21.620  21.181  0.00  0.00     0.145 A 
ATOM     11  C   UNL d   1     -28.014  21.426  21.352  0.00  0.00     0.161 A 
ATOM     12  F   UNL d   1     -28.674  20.550  20.563  0.00  0.00    -0.202 F 
ENDROOT
BRANCH   1  13
ATOM     13  N   UNL d   1     -30.078  21.939  22.535  0.00  0.00    -0.178 N 
ATOM     14  N   UNL d   1     -30.709  21.530  23.718  0.00  0.00    -0.147 NA
ATOM     15  C   UNL d   1     -31.983  21.462  23.492  0.00  0.00     0.154 A 
ATOM     16  N   UNL d   1     -32.220  21.814  22.186  0.00  0.00    -0.283 N 
ATOM     17  C   UNL d   1     -31.040  22.102  21.602  0.00  0.00     0.351 A 
ATOM     18  O   UNL d   1     -30.872  22.447  20.447  0.00  0.00    -0.244 OA
BRANCH  15  19
ATOM     19  C   UNL d   1     -33.031  21.060  24.498  0.00  0.00     0.244 C 
BRANCH  19  20
ATOM     20  O   UNL d   1     -32.442  20.988  25.797  0.00  0.00    -0.393 OA
ATOM     21  H   UNL d   1     -32.320  20.087  26.125  0.00  0.00     0.209 HD
ENDBRANCH  19  20
ENDBRANCH  15  19
BRANCH  16  22
ATOM     22  C   UNL d   1     -33.533  21.863  21.536  0.00  0.00     0.131 C 
ATOM     23  C   UNL d   1     -33.961  20.448  21.143  0.00  0.00     0.027 C 
ENDBRANCH  16  22
ENDBRANCH   1  13
BRANCH   4  24
ATOM     24  C   UNL d   1     -26.658  24.878  24.834  0.00  0.00     0.013 C 
ATOM     25  C   UNL d   1     -26.873  23.976  26.050  0.00  0.00     0.015 C 
ATOM     26  C   UNL d   1     -25.818  26.091  25.241  0.00  0.00     0.015 C 
ENDBRANCH   4  24
BRANCH   6  27
ATOM     27  C   UNL d   1     -22.489  23.737  22.326  0.00  0.00    -0.015 A 
ATOM     28  C   UNL d   1     -22.035  24.421  21.197  0.00  0.00    -0.051 A 
ATOM     29  C   UNL d   1     -20.681  24.586  20.992  0.00  0.00     0.007 A 
ATOM     30  C   UNL d   1     -23.023  24.984  20.208  0.00  0.00     0.049 C 
ATOM     31  C   UNL d   1     -19.773  24.064  21.896  0.00  0.00     0.001 A 
ATOM     32  C   UNL d   1     -20.216  23.381  23.015  0.00  0.00     0.001 A 
ATOM     33  C   UNL d   1     -21.568  23.214  23.234  0.00  0.00     0.013 A 
ENDBRANCH   6  27
TORSDOF 6
ENDMDL
