MODEL 1
REMARK VINA RESULT:     -12.5      0.000      0.000
REMARK  4 active torsions:
REMARK  status: ('A' for Active; 'I' for Inactive)
REMARK    1  A    between atoms: C_5  and  C_6 
REMARK    2  A    between atoms: C_9  and  C_10 
REMARK    3  A    between atoms: C_19  and  C_20 
REMARK    4  A    between atoms: C_20  and  O_22 
ROOT
ATOM      1  C   UNL d   1     -28.255  22.531  23.245  0.00  0.00     0.074 A 
ATOM      2  N   UNL d   1     -29.000  22.622  22.162  0.00  0.00    -0.247 NA
ATOM      3  C   UNL d   1     -30.283  22.262  22.146  0.00  0.00     0.069 A 
ATOM      4  C   UNL d   1     -31.052  22.370  20.972  0.00  0.00     0.035 A 
ATOM      5  C   UNL d   1     -32.360  21.996  20.985  0.00  0.00     0.044 A 
ATOM      6  C   UNL d   1     -32.957  21.504  22.148  0.00  0.00     0.117 A 
ATOM      7  F   UNL d   1     -34.257  21.140  22.127  0.00  0.00    -0.206 F 
ATOM      8  C   UNL d   1     -32.240  21.386  23.304  0.00  0.00     0.057 A 
ATOM      9  C   UNL d   1     -30.894  21.762  23.324  0.00  0.00     0.013 A 
ATOM     10  C   UNL d   1     -30.087  21.652  24.540  0.00  0.00     0.058 A 
ATOM     11  C   UNL d   1     -28.758  22.045  24.461  0.00  0.00    -0.015 A 
ATOM     12  C   UNL d   1     -27.865  21.954  25.671  0.00  0.00     0.052 C 
ENDROOT
BRANCH   1  13
ATOM     13  C   UNL d   1     -26.837  22.953  23.175  0.00  0.00    -0.007 A 
ATOM     14  C   UNL d   1     -25.920  22.196  22.446  0.00  0.00     0.014 A 
ATOM     15  C   UNL d   1     -24.602  22.590  22.375  0.00  0.00     0.013 A 
ATOM     16  C   UNL d   1     -24.183  23.742  23.042  0.00  0.00    -0.021 A 
ATOM     17  C   UNL d   1     -25.100  24.499  23.771  0.00  0.00     0.013 A 
ATOM     18  C   UNL d   1     -26.418  24.107  23.837  0.00  0.00     0.014 A 
BRANCH  16  19
ATOM     19  C   UNL d   1     -22.763  24.163  22.971  0.00  0.00     0.032 A 
ATOM     20  C   UNL d   1     -21.868  23.820  23.988  0.00  0.00     0.019 A 
ATOM     21  C   UNL d   1     -20.552  24.237  23.874  0.00  0.00     0.028 A 
ATOM     22  C   UNL d   1     -20.168  24.974  22.769  0.00  0.00     0.034 A 
ATOM     23  C   UNL d   1     -18.737  25.429  22.642  0.00  0.00     0.070 C 
ATOM     24  N   UNL d   1     -21.035  25.289  21.825  0.00  0.00    -0.225 NA
ATOM     25  C   UNL d   1     -22.297  24.910  21.886  0.00  0.00     0.221 A 
ATOM     26  F   UNL d   1     -23.148  25.251  20.893  0.00  0.00    -0.183 F 
ENDBRANCH  16  19
ENDBRANCH   1  13
BRANCH  10  27
ATOM     27  C   UNL d   1     -30.664  21.138  25.801  0.00  0.00     0.177 C 
ATOM     28  O   UNL d   1     -31.305  21.878  26.520  0.00  0.00    -0.646 OA
BRANCH  27  29
ATOM     29  O   UNL d   1     -30.479  19.851  26.151  0.00  0.00    -0.773 OA
ATOM     30  H   UNL d   1     -29.837  19.675  26.852  0.00  0.00     0.167 HD
ENDBRANCH  27  29
ENDBRANCH  10  27
TORSDOF 4
ENDMDL
