MODEL 1
REMARK VINA RESULT:     -11.2      0.000      0.000
REMARK  6 active torsions:
REMARK  status: ('A' for Active; 'I' for Inactive)
REMARK    1  A    between atoms: C_2  and  O_3 
REMARK    2  A    between atoms: C_2  and  C_34 
REMARK    3  A    between atoms: O_3  and  C_4 
REMARK    4  A    between atoms: C_6  and  N_7 
REMARK    5  A    between atoms: C_20  and  C_21 
REMARK       I    between atoms: C_21  and  N_23 
REMARK    6  A    between atoms: N_23  and  C_24 
ROOT
ATOM      1  C   UNL d   1     -24.714  23.333  22.650  0.00  0.00     0.087 A 
ATOM      2  C   UNL d   1     -25.977  22.793  22.817  0.00  0.00     0.073 A 
ATOM      3  C   UNL d   1     -26.834  23.313  23.777  0.00  0.00     0.104 A 
ATOM      4  C   UNL d   1     -26.423  24.374  24.584  0.00  0.00     0.146 A 
ATOM      5  F   UNL d   1     -27.260  24.873  25.520  0.00  0.00    -0.204 F 
ATOM      6  C   UNL d   1     -25.167  24.916  24.429  0.00  0.00     0.064 A 
ATOM      7  C   UNL d   1     -24.298  24.400  23.460  0.00  0.00     0.068 A 
ENDROOT
BRANCH   7   8
ATOM      8  C   UNL d   1     -22.954  24.977  23.292  0.00  0.00     0.259 C 
ATOM      9  O   UNL d   1     -22.811  26.018  22.678  0.00  0.00    -0.267 OA
ATOM     10  N   UNL d   1     -21.883  24.353  23.818  0.00  0.00    -0.323 N 
ATOM     11  H   UNL d   1     -22.003  23.564  24.370  0.00  0.00     0.169 HD
BRANCH  10  12
ATOM     12  C   UNL d   1     -20.596  24.841  23.568  0.00  0.00     0.035 A 
ATOM     13  C   UNL d   1     -20.027  25.744  24.438  0.00  0.00     0.043 A 
ATOM     14  C   UNL d   1     -18.735  26.230  24.182  0.00  0.00    -0.005 A 
ATOM     15  C   UNL d   1     -18.034  25.787  23.033  0.00  0.00     0.066 A 
ATOM     16  C   UNL d   1     -18.117  27.154  25.046  0.00  0.00     0.015 A 
ATOM     17  C   UNL d   1     -18.647  24.864  22.166  0.00  0.00     0.035 A 
ATOM     18  N   UNL d   1     -16.803  26.249  22.788  0.00  0.00    -0.260 NA
ATOM     19  C   UNL d   1     -19.895  24.402  22.438  0.00  0.00     0.032 A 
ATOM     20  C   UNL d   1     -16.225  27.108  23.590  0.00  0.00     0.117 A 
ATOM     21  C   UNL d   1     -16.859  27.584  24.735  0.00  0.00     0.020 A 
ENDBRANCH  10  12
ENDBRANCH   7   8
BRANCH   1  22
ATOM     22  O   UNL d   1     -23.877  22.829  21.707  0.00  0.00    -0.336 OA
BRANCH  22  23
ATOM     23  C   UNL d   1     -23.966  23.390  20.395  0.00  0.00     0.232 C 
ATOM     24  C   UNL d   1     -22.574  23.821  19.931  0.00  0.00     0.049 C 
BRANCH  23  25
ATOM     25  C   UNL d   1     -24.524  22.341  19.430  0.00  0.00     0.413 C 
ATOM     26  F   UNL d   1     -25.805  21.961  19.844  0.00  0.00    -0.168 F 
ATOM     27  F   UNL d   1     -24.591  22.882  18.142  0.00  0.00    -0.168 F 
ATOM     28  F   UNL d   1     -23.685  21.222  19.422  0.00  0.00    -0.168 F 
ENDBRANCH  23  25
ENDBRANCH  22  23
ENDBRANCH   1  22
BRANCH   3  29
ATOM     29  N   UNL d   1     -28.109  22.768  23.940  0.00  0.00    -0.178 N 
ATOM     30  C   UNL d   1     -28.525  21.997  24.969  0.00  0.00     0.351 A 
ATOM     31  N   UNL d   1     -29.820  21.711  24.757  0.00  0.00    -0.284 N 
ATOM     32  O   UNL d   1     -27.849  21.630  25.914  0.00  0.00    -0.244 OA
ATOM     33  C   UNL d   1     -30.200  22.279  23.560  0.00  0.00     0.131 A 
ATOM     34  C   UNL d   1     -30.719  20.948  25.631  0.00  0.00     0.135 C 
ATOM     35  N   UNL d   1     -29.195  22.917  23.065  0.00  0.00    -0.149 NA
ATOM     36  C   UNL d   1     -31.582  22.139  22.966  0.00  0.00     0.081 C 
ATOM     37  C   UNL d   1     -32.536  21.694  24.083  0.00  0.00     0.009 C 
ATOM     38  C   UNL d   1     -31.928  20.489  24.808  0.00  0.00     0.021 C 
ENDBRANCH   3  29
TORSDOF 6
ENDMDL
