MODEL 1
REMARK VINA RESULT:     -10.9      0.000      0.000
REMARK  6 active torsions:
REMARK  status: ('A' for Active; 'I' for Inactive)
REMARK    1  A    between atoms: C_7  and  N_8 
REMARK       I    between atoms: N_8  and  C_9 
REMARK    2  A    between atoms: C_9  and  C_11 
REMARK    3  A    between atoms: C_15  and  N_16 
REMARK    4  A    between atoms: C_27  and  O_28 
REMARK    5  A    between atoms: O_28  and  C_29 
REMARK    6  A    between atoms: C_29  and  C_31 
ROOT
ATOM      1  C   UNL d   1     -24.294  24.435  23.435  0.00  0.00     0.068 A 
ATOM      2  C   UNL d   1     -25.157  24.956  24.406  0.00  0.00     0.064 A 
ATOM      3  C   UNL d   1     -26.406  24.408  24.583  0.00  0.00     0.146 A 
ATOM      4  F   UNL d   1     -27.238  24.912  25.520  0.00  0.00    -0.204 F 
ATOM      5  C   UNL d   1     -26.817  23.332  23.795  0.00  0.00     0.104 A 
ATOM      6  C   UNL d   1     -25.968  22.809  22.829  0.00  0.00     0.073 A 
ATOM      7  C   UNL d   1     -24.708  23.350  22.648  0.00  0.00     0.087 A 
ENDROOT
BRANCH   1   8
ATOM      8  C   UNL d   1     -22.956  25.020  23.244  0.00  0.00     0.259 C 
ATOM      9  N   UNL d   1     -21.865  24.358  23.674  0.00  0.00    -0.323 N 
ATOM     10  H   UNL d   1     -21.952  23.467  24.048  0.00  0.00     0.169 HD
ATOM     11  O   UNL d   1     -22.837  26.101  22.699  0.00  0.00    -0.267 OA
BRANCH   9  12
ATOM     12  C   UNL d   1     -20.602  24.956  23.584  0.00  0.00     0.036 A 
ATOM     13  C   UNL d   1     -19.790  24.712  22.478  0.00  0.00     0.032 A 
ATOM     14  C   UNL d   1     -18.562  25.286  22.378  0.00  0.00     0.035 A 
ATOM     15  C   UNL d   1     -18.084  26.145  23.392  0.00  0.00     0.075 A 
ATOM     16  N   UNL d   1     -16.906  26.796  23.461  0.00  0.00    -0.245 NA
ATOM     17  C   UNL d   1     -18.902  26.388  24.499  0.00  0.00     0.037 A 
ATOM     18  C   UNL d   1     -16.681  27.530  24.486  0.00  0.00     0.072 A 
ATOM     19  C   UNL d   1     -15.421  28.322  24.716  0.00  0.00     0.079 C 
ATOM     20  S   UNL d   1     -18.051  27.483  25.586  0.00  0.00    -0.073 SA
ATOM     21  C   UNL d   1     -20.161  25.796  24.589  0.00  0.00     0.051 A 
ENDBRANCH   9  12
ENDBRANCH   1   8
BRANCH   7  22
ATOM     22  O   UNL d   1     -23.875  22.836  21.708  0.00  0.00    -0.336 OA
BRANCH  22  23
ATOM     23  C   UNL d   1     -23.948  23.402  20.398  0.00  0.00     0.232 C 
ATOM     24  C   UNL d   1     -22.548  23.822  19.945  0.00  0.00     0.049 C 
BRANCH  23  25
ATOM     25  C   UNL d   1     -24.508  22.363  19.425  0.00  0.00     0.413 C 
ATOM     26  F   UNL d   1     -25.781  21.965  19.849  0.00  0.00    -0.168 F 
ATOM     27  F   UNL d   1     -24.597  22.923  18.145  0.00  0.00    -0.168 F 
ATOM     28  F   UNL d   1     -23.661  21.252  19.389  0.00  0.00    -0.168 F 
ENDBRANCH  23  25
ENDBRANCH  22  23
ENDBRANCH   7  22
BRANCH   5  29
ATOM     29  N   UNL d   1     -28.088  22.780  23.978  0.00  0.00    -0.178 N 
ATOM     30  C   UNL d   1     -28.483  22.011  25.016  0.00  0.00     0.351 A 
ATOM     31  N   UNL d   1     -29.778  21.714  24.823  0.00  0.00    -0.284 N 
ATOM     32  O   UNL d   1     -27.793  21.654  25.954  0.00  0.00    -0.244 OA
ATOM     33  C   UNL d   1     -30.180  22.276  23.628  0.00  0.00     0.131 A 
ATOM     34  C   UNL d   1     -30.661  20.949  25.711  0.00  0.00     0.135 C 
ATOM     35  N   UNL d   1     -29.189  22.927  23.122  0.00  0.00    -0.149 NA
ATOM     36  C   UNL d   1     -31.565  22.113  23.049  0.00  0.00     0.081 C 
ATOM     37  C   UNL d   1     -32.503  21.663  24.178  0.00  0.00     0.009 C 
ATOM     38  C   UNL d   1     -31.874  20.471  24.905  0.00  0.00     0.021 C 
ENDBRANCH   5  29
TORSDOF 6
ENDMDL
