MODEL 1
REMARK VINA RESULT:     -12.6      0.000      0.000
REMARK  7 active torsions:
REMARK  status: ('A' for Active; 'I' for Inactive)
REMARK    1  A    between atoms: C_2  and  O_3 
REMARK    2  A    between atoms: C_2  and  C_4 
REMARK    3  A    between atoms: C_10  and  C_11 
REMARK    4  A    between atoms: C_16  and  C_17 
REMARK    5  A    between atoms: C_22  and  O_23 
REMARK    6  A    between atoms: O_23  and  C_24 
REMARK    7  A    between atoms: C_24  and  C_25 
ROOT
ATOM      1  C   UNL d   1     -26.655  22.862  23.333  0.00  0.00     0.093 A 
ATOM      2  C   UNL d   1     -26.086  24.062  23.772  0.00  0.00     0.173 A 
ATOM      3  F   UNL d   1     -26.716  24.806  24.706  0.00  0.00    -0.202 F 
ATOM      4  C   UNL d   1     -24.876  24.482  23.254  0.00  0.00     0.170 A 
ATOM      5  F   UNL d   1     -24.323  25.637  23.681  0.00  0.00    -0.202 F 
ATOM      6  C   UNL d   1     -24.227  23.714  22.284  0.00  0.00     0.060 A 
ATOM      7  C   UNL d   1     -24.797  22.519  21.840  0.00  0.00     0.170 A 
ATOM      8  F   UNL d   1     -24.169  21.778  20.903  0.00  0.00    -0.202 F 
ATOM      9  C   UNL d   1     -26.003  22.095  22.361  0.00  0.00     0.173 A 
ATOM     10  F   UNL d   1     -26.555  20.937  21.933  0.00  0.00    -0.202 F 
ENDROOT
BRANCH   1  11
ATOM     11  C   UNL d   1     -27.946  22.408  23.889  0.00  0.00     0.145 A 
ATOM     12  N   UNL d   1     -28.111  21.875  25.076  0.00  0.00    -0.228 NA
ATOM     13  C   UNL d   1     -29.420  21.575  25.259  0.00  0.00     0.087 A 
ATOM     14  C   UNL d   1     -30.132  20.992  26.311  0.00  0.00     0.034 A 
ATOM     15  C   UNL d   1     -30.103  21.969  24.095  0.00  0.00     0.080 A 
ATOM     16  C   UNL d   1     -31.495  20.809  26.208  0.00  0.00     0.003 A 
ATOM     17  C   UNL d   1     -32.176  21.197  25.070  0.00  0.00     0.021 A 
ATOM     18  C   UNL d   1     -31.489  21.783  24.004  0.00  0.00     0.066 A 
ATOM     19  N   UNL d   1     -29.154  22.494  23.248  0.00  0.00    -0.337 N 
ATOM     20  H   UNL d   1     -29.311  22.856  22.362  0.00  0.00     0.167 HD
BRANCH  18  21
ATOM     21  C   UNL d   1     -32.216  22.197  22.791  0.00  0.00     0.178 C 
ATOM     22  O   UNL d   1     -31.675  22.128  21.705  0.00  0.00    -0.646 OA
BRANCH  21  23
ATOM     23  O   UNL d   1     -33.481  22.652  22.884  0.00  0.00    -0.773 OA
ATOM     24  H   UNL d   1     -34.182  22.074  22.554  0.00  0.00     0.167 HD
ENDBRANCH  21  23
ENDBRANCH  18  21
ENDBRANCH   1  11
BRANCH   6  25
ATOM     25  C   UNL d   1     -22.932  24.168  21.725  0.00  0.00     0.014 A 
ATOM     26  C   UNL d   1     -21.809  24.273  22.551  0.00  0.00     0.080 A 
ATOM     27  C   UNL d   1     -20.602  24.700  22.021  0.00  0.00     0.037 A 
ATOM     28  C   UNL d   1     -20.510  25.020  20.679  0.00  0.00     0.003 A 
ATOM     29  C   UNL d   1     -21.620  24.917  19.859  0.00  0.00     0.001 A 
ATOM     30  C   UNL d   1     -22.826  24.488  20.372  0.00  0.00     0.015 A 
BRANCH  26  31
ATOM     31  O   UNL d   1     -21.900  23.959  23.870  0.00  0.00    -0.346 OA
BRANCH  31  32
ATOM     32  C   UNL d   1     -20.789  24.307  24.698  0.00  0.00     0.214 C 
BRANCH  32  33
ATOM     33  C   UNL d   1     -21.027  25.662  25.315  0.00  0.00    -0.034 A 
ATOM     34  C   UNL d   1     -20.472  25.969  26.543  0.00  0.00     0.009 A 
ATOM     35  C   UNL d   1     -20.690  27.212  27.109  0.00  0.00     0.001 A 
ATOM     36  C   UNL d   1     -21.463  28.147  26.446  0.00  0.00     0.000 A 
ATOM     37  C   UNL d   1     -22.017  27.840  25.217  0.00  0.00     0.001 A 
ATOM     38  C   UNL d   1     -21.795  26.598  24.649  0.00  0.00     0.009 A 
ENDBRANCH  32  33
ENDBRANCH  31  32
ENDBRANCH  26  31
ENDBRANCH   6  25
TORSDOF 7
ENDMDL
