MODEL 1
REMARK VINA RESULT:     -10.2      0.000      0.000
REMARK  5 active torsions:
REMARK  status: ('A' for Active; 'I' for Inactive)
REMARK    1  A    between atoms: C_3  and  C_4 
REMARK    2  A    between atoms: C_4  and  N_5 
REMARK       I    between atoms: N_8  and  C_9 
REMARK    3  A    between atoms: C_9  and  C_11 
REMARK    4  A    between atoms: C_21  and  N_22 
REMARK    5  A    between atoms: N_22  and  C_23 
ROOT
ATOM      1  C   UNL d   1     -20.044  24.037  22.268  0.00  0.00     0.051 C 
ATOM      2  C   UNL d   1     -20.588  25.117  23.168  0.00  0.00    -0.027 A 
ATOM      3  C   UNL d   1     -21.860  25.615  22.960  0.00  0.00    -0.022 A 
ATOM      4  C   UNL d   1     -22.359  26.606  23.785  0.00  0.00     0.009 A 
ATOM      5  C   UNL d   1     -21.588  27.103  24.819  0.00  0.00     0.003 A 
ATOM      6  C   UNL d   1     -20.317  26.606  25.036  0.00  0.00     0.030 A 
ATOM      7  C   UNL d   1     -19.810  25.614  24.206  0.00  0.00     0.040 A 
ENDROOT
BRANCH   3   8
ATOM      8  C   UNL d   1     -22.704  25.077  21.834  0.00  0.00     0.311 C 
BRANCH   8   9
ATOM      9  N   UNL d   1     -23.588  24.020  22.347  0.00  0.00     0.095 N 
ATOM     10  C   UNL d   1     -24.044  23.142  21.261  0.00  0.00     0.292 C 
ATOM     11  C   UNL d   1     -24.809  21.956  21.855  0.00  0.00     0.156 C 
ATOM     12  N   UNL d   1     -25.876  22.476  22.724  0.00  0.00    -0.348 N 
ATOM     13  C   UNL d   1     -25.517  23.466  23.749  0.00  0.00     0.156 C 
ATOM     14  C   UNL d   1     -27.149  22.055  22.584  0.00  0.00     0.224 C 
ATOM     15  C   UNL d   1     -24.723  24.594  23.081  0.00  0.00     0.292 C 
ATOM     16  O   UNL d   1     -27.427  21.237  21.732  0.00  0.00    -0.273 OA
BRANCH  14  17
ATOM     17  C   UNL d   1     -28.227  22.601  23.484  0.00  0.00     0.078 C 
ATOM     18  C   UNL d   1     -29.540  22.758  22.698  0.00  0.00     0.014 C 
ATOM     19  C   UNL d   1     -30.579  21.854  23.392  0.00  0.00     0.001 C 
ATOM     20  C   UNL d   1     -30.045  21.700  24.838  0.00  0.00     0.001 C 
ATOM     21  C   UNL d   1     -28.514  21.606  24.628  0.00  0.00     0.014 C 
ENDBRANCH  14  17
ENDBRANCH   8   9
ENDBRANCH   3   8
BRANCH   7  22
ATOM     22  N   UNL d   1     -18.523  25.113  24.419  0.00  0.00    -0.335 N 
ATOM     23  H   UNL d   1     -18.403  24.253  24.851  0.00  0.00     0.168 HD
BRANCH  22  24
ATOM     24  C   UNL d   1     -17.424  25.842  24.016  0.00  0.00     0.175 A 
ATOM     25  S   UNL d   1     -16.648  27.098  24.971  0.00  0.00    -0.028 SA
ATOM     26  C   UNL d   1     -15.474  27.367  23.686  0.00  0.00     0.148 A 
ATOM     27  C   UNL d   1     -15.759  26.484  22.634  0.00  0.00     0.188 A 
ATOM     28  N   UNL d   1     -14.454  28.214  23.594  0.00  0.00    -0.248 NA
ATOM     29  N   UNL d   1     -16.820  25.697  22.884  0.00  0.00    -0.202 NA
ATOM     30  N   UNL d   1     -14.977  26.520  21.540  0.00  0.00    -0.237 NA
ATOM     31  C   UNL d   1     -13.971  27.365  21.466  0.00  0.00     0.138 A 
ATOM     32  C   UNL d   1     -13.701  28.232  22.512  0.00  0.00     0.137 A 
ENDBRANCH  22  24
ENDBRANCH   7  22
TORSDOF 5
ENDMDL
