MODEL 1
REMARK VINA RESULT:     -10.6      0.000      0.000
REMARK  9 active torsions:
REMARK  status: ('A' for Active; 'I' for Inactive)
REMARK    1  A    between atoms: C_2  and  C_3 
REMARK    2  A    between atoms: C_3  and  O_4 
REMARK    3  A    between atoms: C_5  and  C_8 
REMARK       I    between atoms: C_8  and  N_10 
REMARK    4  A    between atoms: N_10  and  C_11 
REMARK    5  A    between atoms: C_14  and  C_15 
REMARK    6  A    between atoms: C_19  and  O_20 
REMARK    7  A    between atoms: O_20  and  C_21 
REMARK    8  A    between atoms: C_26  and  C_27 
REMARK    9  A    between atoms: C_27  and  O_29 
ROOT
ATOM      1  C   UNL d   1     -32.336  21.764  22.798  0.00  0.00     0.069 C 
ATOM      2  C   UNL d   1     -31.341  21.913  23.719  0.00  0.00     0.141 C 
ATOM      3  C   UNL d   1     -31.602  21.651  25.102  0.00  0.00     0.107 C 
ATOM      4  N   UNL d   1     -31.809  21.444  26.199  0.00  0.00    -0.191 NA
ENDROOT
BRANCH   2   5
ATOM      5  C   UNL d   1     -30.002  22.340  23.291  0.00  0.00     0.269 C 
ATOM      6  O   UNL d   1     -29.878  23.100  22.349  0.00  0.00    -0.266 OA
ATOM      7  N   UNL d   1     -28.911  21.892  23.943  0.00  0.00    -0.322 N 
ATOM      8  H   UNL d   1     -29.004  21.226  24.642  0.00  0.00     0.169 HD
BRANCH   7   9
ATOM      9  C   UNL d   1     -27.646  22.388  23.613  0.00  0.00     0.036 A 
ATOM     10  C   UNL d   1     -26.945  21.839  22.550  0.00  0.00     0.048 A 
ATOM     11  C   UNL d   1     -25.683  22.333  22.221  0.00  0.00     0.052 A 
ATOM     12  C   UNL d   1     -25.132  23.388  22.972  0.00  0.00    -0.009 A 
ATOM     13  C   UNL d   1     -25.848  23.925  24.039  0.00  0.00     0.015 A 
ATOM     14  C   UNL d   1     -27.096  23.431  24.351  0.00  0.00     0.030 A 
BRANCH  11  15
ATOM     15  C   UNL d   1     -24.931  21.753  21.092  0.00  0.00     0.293 C 
ATOM     16  O   UNL d   1     -24.012  20.988  21.305  0.00  0.00    -0.259 OA
BRANCH  15  17
ATOM     17  O   UNL d   1     -25.264  22.072  19.827  0.00  0.00    -0.322 OA
ATOM     18  C   UNL d   1     -24.174  22.342  18.906  0.00  0.00     0.213 C 
ENDBRANCH  15  17
ENDBRANCH  11  15
BRANCH  12  19
ATOM     19  C   UNL d   1     -23.792  23.922  22.630  0.00  0.00    -0.022 A 
ATOM     20  C   UNL d   1     -22.806  24.016  23.611  0.00  0.00     0.049 A 
ATOM     21  C   UNL d   1     -21.557  24.516  23.284  0.00  0.00     0.070 A 
ATOM     22  C   UNL d   1     -21.290  24.926  21.986  0.00  0.00     0.037 A 
ATOM     23  C   UNL d   1     -22.266  24.828  21.011  0.00  0.00     0.004 A 
ATOM     24  C   UNL d   1     -23.515  24.331  21.326  0.00  0.00     0.012 A 
BRANCH  21  25
ATOM     25  O   UNL d   1     -20.593  24.610  24.238  0.00  0.00    -0.346 OA
BRANCH  25  26
ATOM     26  C   UNL d   1     -20.157  25.923  24.593  0.00  0.00     0.129 C 
ATOM     27  C   UNL d   1     -21.303  26.941  24.718  0.00  0.00     0.032 C 
ATOM     28  C   UNL d   1     -20.566  27.502  25.945  0.00  0.00     0.005 C 
ATOM     29  C   UNL d   1     -19.932  26.110  26.103  0.00  0.00     0.032 C 
ENDBRANCH  25  26
ENDBRANCH  21  25
ENDBRANCH  12  19
ENDBRANCH   7   9
ENDBRANCH   2   5
BRANCH   1  30
ATOM     30  C   UNL d   1     -33.710  21.325  23.236  0.00  0.00     0.061 C 
ATOM     31  C   UNL d   1     -34.332  20.440  22.155  0.00  0.00     0.012 C 
ENDBRANCH   1  30
BRANCH   1  32
ATOM     32  O   UNL d   1     -32.092  22.009  21.499  0.00  0.00    -0.363 OA
ATOM     33  H   UNL d   1     -31.309  22.538  21.292  0.00  0.00     0.217 HD
ENDBRANCH   1  32
TORSDOF 9
ENDMDL
