MODEL 1
REMARK VINA RESULT:     -12.8      0.000      0.000
REMARK  5 active torsions:
REMARK  status: ('A' for Active; 'I' for Inactive)
REMARK       I    between atoms: C_2  and  N_3 
REMARK    1  A    between atoms: C_2  and  C_24 
REMARK    2  A    between atoms: N_3  and  C_4 
REMARK    3  A    between atoms: C_9  and  C_10 
REMARK    4  A    between atoms: C_14  and  C_15 
REMARK    5  A    between atoms: C_25  and  O_26 
ROOT
ATOM      1  C   UNL d   1     -26.773  22.563  23.278  0.00  0.00     0.119 A 
ATOM      2  C   UNL d   1     -26.269  23.729  23.845  0.00  0.00     0.185 A 
ATOM      3  F   UNL d   1     -26.953  24.352  24.829  0.00  0.00    -0.200 F 
ATOM      4  C   UNL d   1     -25.066  24.248  23.405  0.00  0.00     0.171 A 
ATOM      5  F   UNL d   1     -24.573  25.378  23.960  0.00  0.00    -0.202 F 
ATOM      6  C   UNL d   1     -24.362  23.607  22.384  0.00  0.00     0.058 A 
ATOM      7  C   UNL d   1     -24.873  22.439  21.813  0.00  0.00     0.171 A 
ATOM      8  F   UNL d   1     -24.194  21.816  20.825  0.00  0.00    -0.202 F 
ATOM      9  C   UNL d   1     -26.074  21.923  22.260  0.00  0.00     0.185 A 
ATOM     10  F   UNL d   1     -26.570  20.794  21.708  0.00  0.00    -0.200 F 
ENDROOT
BRANCH   1  11
ATOM     11  N   UNL d   1     -27.989  22.038  23.728  0.00  0.00    -0.317 N 
ATOM     12  C   UNL d   1     -29.148  22.461  23.184  0.00  0.00     0.263 C 
ATOM     13  O   UNL d   1     -29.133  23.230  22.241  0.00  0.00    -0.267 OA
ATOM     14  H   UNL d   1     -27.999  21.366  24.428  0.00  0.00     0.169 HD
BRANCH  12  15
ATOM     15  C   UNL d   1     -30.424  21.994  23.728  0.00  0.00     0.115 A 
ATOM     16  C   UNL d   1     -31.628  21.819  23.016  0.00  0.00     0.078 A 
ATOM     17  N   UNL d   1     -32.557  21.368  23.908  0.00  0.00    -0.242 N 
ATOM     18  C   UNL d   1     -31.975  22.014  21.673  0.00  0.00     0.033 A 
ATOM     19  N   UNL d   1     -31.944  21.272  25.163  0.00  0.00    -0.141 NA
ATOM     20  C   UNL d   1     -33.828  21.105  23.495  0.00  0.00     0.119 A 
ATOM     21  C   UNL d   1     -30.688  21.638  25.067  0.00  0.00     0.200 A 
ATOM     22  C   UNL d   1     -34.189  21.292  22.206  0.00  0.00     0.019 A 
ATOM     23  C   UNL d   1     -33.253  21.751  21.269  0.00  0.00     0.004 A 
BRANCH  21  24
ATOM     24  O   UNL d   1     -29.792  21.670  26.086  0.00  0.00    -0.343 OA
ATOM     25  H   UNL d   1     -29.525  22.562  26.348  0.00  0.00     0.219 HD
ENDBRANCH  21  24
ENDBRANCH  12  15
ENDBRANCH   1  11
BRANCH   6  26
ATOM     26  C   UNL d   1     -23.073  24.164  21.907  0.00  0.00    -0.016 A 
ATOM     27  C   UNL d   1     -22.013  24.383  22.792  0.00  0.00     0.049 A 
ATOM     28  C   UNL d   1     -20.833  24.904  22.306  0.00  0.00     0.140 A 
ATOM     29  N   UNL d   1     -20.696  25.193  21.026  0.00  0.00    -0.256 NA
ATOM     30  C   UNL d   1     -21.672  25.003  20.158  0.00  0.00     0.118 A 
ATOM     31  C   UNL d   1     -22.883  24.480  20.558  0.00  0.00     0.031 A 
BRANCH  28  32
ATOM     32  C   UNL d   1     -19.683  25.144  23.249  0.00  0.00     0.434 C 
ATOM     33  F   UNL d   1     -19.807  26.414  23.824  0.00  0.00    -0.165 F 
ATOM     34  F   UNL d   1     -19.695  24.174  24.257  0.00  0.00    -0.165 F 
ATOM     35  F   UNL d   1     -18.477  25.068  22.543  0.00  0.00    -0.165 F 
ENDBRANCH  28  32
ENDBRANCH   6  26
TORSDOF 5
ENDMDL
