MODEL 1
REMARK VINA RESULT:     -10.2      0.000      0.000
REMARK  5 active torsions:
REMARK  status: ('A' for Active; 'I' for Inactive)
REMARK    1  A    between atoms: C_2  and  OXT_3 
REMARK    2  A    between atoms: C_2  and  CA_4 
REMARK    3  A    between atoms: C_13  and  C_14 
REMARK    4  A    between atoms: C_14  and  C_15 
REMARK    5  A    between atoms: C_15  and  C_16 
ROOT
ATOM      1  CA  UNL d   1     -32.263  20.835  24.255  0.00  0.00     0.122 A 
ATOM      2  N   UNL d   1     -32.586  19.741  25.030  0.00  0.00    -0.302 N 
ATOM      3  H   UNL d   1     -33.427  19.282  24.880  0.00  0.00     0.171 HD
ATOM      4  C   UNL d   1     -31.755  19.299  25.989  0.00  0.00     0.327 A 
ATOM      5  O   UNL d   1     -32.078  18.331  26.651  0.00  0.00    -0.247 OA
ATOM      6  N   UNL d   1     -30.577  19.898  26.238  0.00  0.00    -0.275 N 
ATOM      7  H   UNL d   1     -30.000  19.555  26.937  0.00  0.00     0.173 HD
ATOM      8  C   UNL d   1     -30.191  20.971  25.516  0.00  0.00     0.258 A 
ATOM      9  O   UNL d   1     -29.124  21.512  25.734  0.00  0.00    -0.267 OA
ATOM     10  C   UNL d   1     -31.084  21.477  24.466  0.00  0.00     0.044 A 
ENDROOT
BRANCH  10  11
ATOM     11  C   UNL d   1     -30.700  22.674  23.637  0.00  0.00     0.051 C 
BRANCH  11  12
ATOM     12  C   UNL d   1     -30.349  22.222  22.218  0.00  0.00     0.043 C 
BRANCH  12  13
ATOM     13  C   UNL d   1     -28.851  22.141  22.074  0.00  0.00    -0.057 A 
ATOM     14  C   UNL d   1     -28.055  22.825  22.942  0.00  0.00     0.019 A 
ATOM     15  C   UNL d   1     -26.658  22.750  22.810  0.00  0.00    -0.025 A 
ATOM     16  C   UNL d   1     -26.099  21.962  21.774  0.00  0.00    -0.026 A 
ATOM     17  C   UNL d   1     -25.804  23.443  23.685  0.00  0.00     0.012 A 
ATOM     18  C   UNL d   1     -26.952  21.270  20.898  0.00  0.00     0.013 A 
ATOM     19  C   UNL d   1     -24.702  21.888  21.642  0.00  0.00     0.012 A 
ATOM     20  C   UNL d   1     -28.300  21.365  21.055  0.00  0.00     0.008 A 
ATOM     21  C   UNL d   1     -23.906  22.572  22.509  0.00  0.00     0.001 A 
ATOM     22  C   UNL d   1     -24.456  23.348  23.528  0.00  0.00     0.001 A 
ENDBRANCH  12  13
ENDBRANCH  11  12
ENDBRANCH  10  11
BRANCH   1  23
ATOM     23  C   UNL d   1     -33.195  21.306  23.203  0.00  0.00     0.194 C 
ATOM     24  O   UNL d   1     -33.451  20.592  22.256  0.00  0.00    -0.645 OA
BRANCH  23  25
ATOM     25  OXT UNL d   1     -33.756  22.526  23.298  0.00  0.00    -0.772 OA
ATOM     26  HXT UNL d   1     -33.578  23.030  24.105  0.00  0.00     0.167 HD
ENDBRANCH  23  25
ENDBRANCH   1  23
TORSDOF 5
ENDMDL
