MODEL 1
REMARK VINA RESULT:      -8.5      0.000      0.000
REMARK  6 active torsions:
REMARK  status: ('A' for Active; 'I' for Inactive)
REMARK    1  A    between atoms: C_7  and  N_8 
REMARK       I    between atoms: N_8  and  C_9 
REMARK    2  A    between atoms: C_9  and  C_11 
REMARK    3  A    between atoms: C_15  and  N_16 
REMARK    4  A    between atoms: C_27  and  O_28 
REMARK    5  A    between atoms: O_28  and  C_29 
REMARK    6  A    between atoms: C_29  and  C_31 
ROOT
ATOM      1  C   UNL d   1     -19.498  25.306  23.066  0.00  0.00     0.068 A 
ATOM      2  C   UNL d   1     -19.992  24.828  21.848  0.00  0.00     0.064 A 
ATOM      3  C   UNL d   1     -21.266  24.311  21.778  0.00  0.00     0.146 A 
ATOM      4  F   UNL d   1     -21.743  23.850  20.601  0.00  0.00    -0.204 F 
ATOM      5  C   UNL d   1     -22.067  24.263  22.919  0.00  0.00     0.104 A 
ATOM      6  C   UNL d   1     -21.585  24.741  24.131  0.00  0.00     0.073 A 
ATOM      7  C   UNL d   1     -20.304  25.257  24.213  0.00  0.00     0.087 A 
ENDROOT
BRANCH   1   8
ATOM      8  C   UNL d   1     -18.134  25.859  23.145  0.00  0.00     0.260 C 
ATOM      9  N   UNL d   1     -17.908  27.000  23.826  0.00  0.00    -0.306 N 
ATOM     10  H   UNL d   1     -18.644  27.456  24.265  0.00  0.00     0.170 HD
ATOM     11  O   UNL d   1     -17.213  25.287  22.595  0.00  0.00    -0.267 OA
BRANCH   9  12
ATOM     12  C   UNL d   1     -16.620  27.523  23.900  0.00  0.00     0.154 A 
ATOM     13  C   UNL d   1     -15.800  27.210  24.981  0.00  0.00     0.076 A 
ATOM     14  C   UNL d   1     -16.306  26.304  26.073  0.00  0.00     0.074 C 
ATOM     15  N   UNL d   1     -14.578  27.703  25.044  0.00  0.00    -0.261 NA
ATOM     16  C   UNL d   1     -14.135  28.503  24.089  0.00  0.00     0.136 A 
ATOM     17  C   UNL d   1     -14.949  28.821  23.017  0.00  0.00     0.138 A 
ATOM     18  N   UNL d   1     -16.172  28.326  22.944  0.00  0.00    -0.240 NA
ENDBRANCH   9  12
ENDBRANCH   1   8
BRANCH   7  19
ATOM     19  O   UNL d   1     -19.831  25.719  25.398  0.00  0.00    -0.345 OA
BRANCH  19  20
ATOM     20  C   UNL d   1     -20.766  26.368  26.261  0.00  0.00     0.129 C 
ATOM     21  C   UNL d   1     -20.575  25.862  27.693  0.00  0.00     0.040 C 
BRANCH  20  22
ATOM     22  C   UNL d   1     -20.534  27.880  26.220  0.00  0.00     0.015 C 
ATOM     23  C   UNL d   1     -21.669  28.591  26.959  0.00  0.00     0.007 C 
ATOM     24  C   UNL d   1     -21.436  30.103  26.917  0.00  0.00     0.000 C 
ATOM     25  C   UNL d   1     -20.103  30.432  27.591  0.00  0.00     0.000 C 
ATOM     26  C   UNL d   1     -18.969  29.721  26.851  0.00  0.00     0.000 C 
ATOM     27  C   UNL d   1     -19.201  28.210  26.893  0.00  0.00     0.007 C 
ENDBRANCH  20  22
ENDBRANCH  19  20
ENDBRANCH   7  19
BRANCH   5  28
ATOM     28  N   UNL d   1     -23.358  23.738  22.842  0.00  0.00    -0.178 N 
ATOM     29  C   UNL d   1     -24.474  24.277  23.381  0.00  0.00     0.351 A 
ATOM     30  N   UNL d   1     -25.503  23.479  23.051  0.00  0.00    -0.284 N 
ATOM     31  O   UNL d   1     -24.536  25.296  24.043  0.00  0.00    -0.244 OA
ATOM     32  C   UNL d   1     -25.010  22.409  22.332  0.00  0.00     0.131 A 
ATOM     33  C   UNL d   1     -26.924  23.679  23.360  0.00  0.00     0.135 C 
ATOM     34  N   UNL d   1     -23.737  22.553  22.193  0.00  0.00    -0.149 NA
ATOM     35  C   UNL d   1     -25.868  21.276  21.819  0.00  0.00     0.081 C 
ATOM     36  C   UNL d   1     -27.330  21.744  21.828  0.00  0.00     0.009 C 
ATOM     37  C   UNL d   1     -27.654  22.340  23.202  0.00  0.00     0.021 C 
ENDBRANCH   5  28
TORSDOF 6
ENDMDL
