MODEL 1
REMARK VINA RESULT:     -12.3      0.000      0.000
REMARK  6 active torsions:
REMARK  status: ('A' for Active; 'I' for Inactive)
REMARK    1  A    between atoms: C_5  and  C_6 
REMARK    2  A    between atoms: C_6  and  O_8 
REMARK    3  A    between atoms: C_10  and  C_11 
REMARK    4  A    between atoms: C_16  and  C_17 
REMARK    5  A    between atoms: C_21  and  C_22 
REMARK    6  A    between atoms: C_22  and  O_23 
ROOT
ATOM      1  C   UNL d   1     -26.724  22.870  23.059  0.00  0.00     0.058 A 
ATOM      2  C   UNL d   1     -25.930  22.115  22.194  0.00  0.00     0.170 A 
ATOM      3  F   UNL d   1     -26.446  21.029  21.578  0.00  0.00    -0.202 F 
ATOM      4  C   UNL d   1     -24.617  22.481  21.963  0.00  0.00     0.170 A 
ATOM      5  F   UNL d   1     -23.851  21.753  21.122  0.00  0.00    -0.202 F 
ATOM      6  C   UNL d   1     -24.082  23.601  22.604  0.00  0.00     0.058 A 
ATOM      7  C   UNL d   1     -24.874  24.353  23.473  0.00  0.00     0.170 A 
ATOM      8  F   UNL d   1     -24.357  25.435  24.092  0.00  0.00    -0.202 F 
ATOM      9  C   UNL d   1     -26.188  23.989  23.699  0.00  0.00     0.170 A 
ATOM     10  F   UNL d   1     -26.955  24.717  24.540  0.00  0.00    -0.202 F 
ENDROOT
BRANCH   1  11
ATOM     11  C   UNL d   1     -28.134  22.481  23.301  0.00  0.00    -0.016 A 
ATOM     12  C   UNL d   1     -28.505  21.954  24.537  0.00  0.00     0.033 A 
ATOM     13  C   UNL d   1     -29.823  21.581  24.772  0.00  0.00     0.069 A 
ATOM     14  C   UNL d   1     -30.787  21.749  23.753  0.00  0.00     0.102 A 
ATOM     15  N   UNL d   1     -32.109  21.494  23.679  0.00  0.00    -0.233 NA
ATOM     16  C   UNL d   1     -30.398  22.281  22.512  0.00  0.00     0.064 A 
ATOM     17  C   UNL d   1     -32.556  21.824  22.500  0.00  0.00     0.101 A 
ATOM     18  C   UNL d   1     -33.986  21.681  22.048  0.00  0.00     0.091 C 
ATOM     19  N   UNL d   1     -31.543  22.315  21.738  0.00  0.00    -0.343 N 
ATOM     20  H   UNL d   1     -31.612  22.631  20.823  0.00  0.00     0.167 HD
ATOM     21  C   UNL d   1     -29.080  22.643  22.291  0.00  0.00     0.044 A 
BRANCH  13  22
ATOM     22  C   UNL d   1     -30.214  21.021  26.076  0.00  0.00     0.178 C 
ATOM     23  O   UNL d   1     -30.158  21.709  27.076  0.00  0.00    -0.646 OA
BRANCH  22  24
ATOM     24  O   UNL d   1     -30.633  19.743  26.162  0.00  0.00    -0.773 OA
ATOM     25  H   UNL d   1     -30.704  19.362  27.048  0.00  0.00     0.167 HD
ENDBRANCH  22  24
ENDBRANCH  13  22
ENDBRANCH   1  11
BRANCH   6  26
ATOM     26  C   UNL d   1     -22.672  23.990  22.360  0.00  0.00    -0.019 A 
ATOM     27  C   UNL d   1     -21.795  24.147  23.431  0.00  0.00     0.021 A 
ATOM     28  C   UNL d   1     -20.482  24.505  23.197  0.00  0.00    -0.034 A 
ATOM     29  C   UNL d   1     -20.040  24.717  21.904  0.00  0.00     0.009 A 
ATOM     30  C   UNL d   1     -20.908  24.567  20.837  0.00  0.00     0.002 A 
ATOM     31  C   UNL d   1     -22.221  24.205  21.058  0.00  0.00     0.012 A 
BRANCH  28  32
ATOM     32  C   UNL d   1     -19.531  24.671  24.353  0.00  0.00     0.202 C 
BRANCH  32  33
ATOM     33  O   UNL d   1     -18.242  25.043  23.860  0.00  0.00    -0.396 OA
ATOM     34  H   UNL d   1     -17.827  24.372  23.299  0.00  0.00     0.209 HD
ENDBRANCH  32  33
ENDBRANCH  28  32
ENDBRANCH   6  26
TORSDOF 6
ENDMDL
