MODEL 1
REMARK VINA RESULT:      -9.5      0.000      0.000
REMARK  5 active torsions:
REMARK  status: ('A' for Active; 'I' for Inactive)
REMARK    1  A    between atoms: C_3  and  C_4 
REMARK       I    between atoms: C_4  and  N_6 
REMARK    2  A    between atoms: N_6  and  C_7 
REMARK    3  A    between atoms: C_10  and  C_11 
REMARK    4  A    between atoms: C_17  and  O_18 
REMARK    5  A    between atoms: C_17  and  C_19 
ROOT
ATOM      1  N   UNL d   1     -31.394  21.798  26.007  0.00  0.00    -0.191 NA
ATOM      2  C   UNL d   1     -31.197  21.936  24.898  0.00  0.00     0.107 C 
ATOM      3  C   UNL d   1     -30.950  22.112  23.498  0.00  0.00     0.141 C 
ATOM      4  C   UNL d   1     -31.969  21.972  22.602  0.00  0.00     0.073 C 
ENDROOT
BRANCH   3   5
ATOM      5  C   UNL d   1     -29.597  22.443  23.026  0.00  0.00     0.269 C 
ATOM      6  O   UNL d   1     -29.444  23.285  22.162  0.00  0.00    -0.266 OA
ATOM      7  N   UNL d   1     -28.528  21.813  23.552  0.00  0.00    -0.322 N 
ATOM      8  H   UNL d   1     -28.654  21.089  24.185  0.00  0.00     0.169 HD
BRANCH   7   9
ATOM      9  C   UNL d   1     -27.236  22.203  23.184  0.00  0.00     0.035 A 
ATOM     10  C   UNL d   1     -26.575  23.188  23.906  0.00  0.00     0.030 A 
ATOM     11  C   UNL d   1     -25.300  23.572  23.541  0.00  0.00     0.018 A 
ATOM     12  C   UNL d   1     -24.680  22.976  22.458  0.00  0.00     0.048 A 
ATOM     13  C   UNL d   1     -25.333  21.990  21.741  0.00  0.00     0.018 A 
ATOM     14  C   UNL d   1     -26.611  21.606  22.097  0.00  0.00     0.030 A 
BRANCH  12  15
ATOM     15  C   UNL d   1     -23.288  23.396  22.063  0.00  0.00     0.417 C 
ATOM     16  F   UNL d   1     -23.177  24.788  22.158  0.00  0.00    -0.166 F 
ATOM     17  F   UNL d   1     -22.359  22.795  22.919  0.00  0.00    -0.166 F 
ATOM     18  F   UNL d   1     -23.036  22.997  20.746  0.00  0.00    -0.166 F 
ENDBRANCH  12  15
ENDBRANCH   7   9
ENDBRANCH   3   5
BRANCH   4  19
ATOM     19  O   UNL d   1     -31.736  22.136  21.289  0.00  0.00    -0.363 OA
ATOM     20  H   UNL d   1     -32.488  22.021  20.692  0.00  0.00     0.217 HD
ENDBRANCH   4  19
BRANCH   4  21
ATOM     21  C   UNL d   1     -33.354  21.632  23.086  0.00  0.00     0.044 A 
ATOM     22  C   UNL d   1     -34.290  20.921  22.105  0.00  0.00     0.012 A 
ATOM     23  C   UNL d   1     -33.690  20.153  23.286  0.00  0.00     0.012 A 
ENDBRANCH   4  21
TORSDOF 5
ENDMDL
