MODEL 1
REMARK VINA RESULT:      -9.6      0.000      0.000
REMARK  4 active torsions:
REMARK  status: ('A' for Active; 'I' for Inactive)
REMARK    1  A    between atoms: C_2  and  C_3 
REMARK    2  A    between atoms: C_3  and  N_5 
REMARK    3  A    between atoms: N_5  and  C_6 
REMARK    4  A    between atoms: C_10  and  C_11 
ROOT
ATOM      1  C   UNL d   1     -24.448  23.309  22.738  0.00  0.00     0.723 A 
ATOM      2  N   UNL d   1     -23.989  22.575  21.734  0.00  0.00    -0.075 NA
ATOM      3  C   UNL d   1     -24.751  21.660  21.153  0.00  0.00     0.139 A 
ATOM      4  C   UNL d   1     -26.047  21.478  21.596  0.00  0.00     0.053 A 
ATOM      5  C   UNL d   1     -26.507  22.271  22.655  0.00  0.00     0.094 A 
ATOM      6  N   UNL d   1     -25.682  23.168  23.195  0.00  0.00    -0.062 NA
ENDROOT
BRANCH   5   7
ATOM      7  C   UNL d   1     -27.885  22.115  23.166  0.00  0.00     0.079 A 
ATOM      8  C   UNL d   1     -28.994  22.276  22.312  0.00  0.00     0.267 A 
ATOM      9  N   UNL d   1     -30.253  22.119  22.811  0.00  0.00    -0.266 N 
ATOM     10  O   UNL d   1     -28.828  22.548  21.134  0.00  0.00    -0.267 OA
ATOM     11  C   UNL d   1     -30.407  21.822  24.122  0.00  0.00     0.180 A 
ATOM     12  C   UNL d   1     -31.435  22.234  22.125  0.00  0.00     0.116 A 
ATOM     13  N   UNL d   1     -29.359  21.674  24.932  0.00  0.00    -0.235 NA
ATOM     14  S   UNL d   1     -32.129  21.686  24.486  0.00  0.00    -0.055 SA
ATOM     15  C   UNL d   1     -28.117  21.808  24.506  0.00  0.00     0.139 A 
ATOM     16  C   UNL d   1     -32.533  22.045  22.813  0.00  0.00    -0.002 A 
ATOM     17  C   UNL d   1     -33.931  22.126  22.257  0.00  0.00     0.058 C 
ENDBRANCH   5   7
BRANCH   1  18
ATOM     18  N   UNL d   1     -23.617  24.250  23.321  0.00  0.00    -0.218 N 
ATOM     19  H   UNL d   1     -23.344  24.150  24.245  0.00  0.00     0.178 HD
BRANCH  18  20
ATOM     20  C   UNL d   1     -23.150  25.398  22.539  0.00  0.00     0.095 C 
ATOM     21  C   UNL d   1     -21.634  25.306  22.352  0.00  0.00     0.032 C 
BRANCH  20  22
ATOM     22  C   UNL d   1     -23.496  26.693  23.277  0.00  0.00     0.021 C 
ATOM     23  C   UNL d   1     -22.407  26.998  24.308  0.00  0.00     0.007 C 
ENDBRANCH  20  22
ENDBRANCH  18  20
ENDBRANCH   1  18
TORSDOF 4
ENDMDL
