MODEL 1
REMARK VINA RESULT:     -11.3      0.000      0.000
REMARK  5 active torsions:
REMARK  status: ('A' for Active; 'I' for Inactive)
REMARK    1  A    between atoms: C_2  and  O_3 
REMARK    2  A    between atoms: C_2  and  C_4 
REMARK    3  A    between atoms: C_5  and  C_6 
REMARK       I    between atoms: C_6  and  N_8 
REMARK    4  A    between atoms: N_8  and  C_9 
REMARK    5  A    between atoms: C_13  and  C_14 
ROOT
ATOM      1  C   UNL d   1     -27.973  21.967  23.797  0.00  0.00     0.113 A 
ATOM      2  C   UNL d   1     -27.351  22.661  24.831  0.00  0.00     0.147 A 
ATOM      3  F   UNL d   1     -27.958  22.769  26.033  0.00  0.00    -0.204 F 
ATOM      4  C   UNL d   1     -26.115  23.242  24.627  0.00  0.00     0.057 A 
ATOM      5  C   UNL d   1     -25.490  23.130  23.386  0.00  0.00    -0.018 A 
ATOM      6  C   UNL d   1     -26.113  22.433  22.352  0.00  0.00     0.057 A 
ATOM      7  C   UNL d   1     -27.350  21.855  22.558  0.00  0.00     0.147 A 
ATOM      8  F   UNL d   1     -27.954  21.178  21.557  0.00  0.00    -0.204 F 
ENDROOT
BRANCH   1   9
ATOM      9  N   UNL d   1     -29.225  21.379  24.006  0.00  0.00    -0.318 N 
ATOM     10  C   UNL d   1     -30.345  22.029  23.637  0.00  0.00     0.253 C 
ATOM     11  O   UNL d   1     -30.266  23.102  23.071  0.00  0.00    -0.268 OA
ATOM     12  H   UNL d   1     -29.286  20.501  24.416  0.00  0.00     0.169 HD
BRANCH  10  13
ATOM     13  C   UNL d   1     -31.668  21.441  23.922  0.00  0.00     0.023 C 
ATOM     14  C   UNL d   1     -31.968  20.727  25.016  0.00  0.00     0.027 C 
ATOM     15  C   UNL d   1     -33.411  20.281  24.980  0.00  0.00     0.046 C 
ATOM     16  C   UNL d   1     -33.845  20.461  23.508  0.00  0.00     0.010 C 
ATOM     17  C   UNL d   1     -32.878  21.566  23.024  0.00  0.00     0.045 C 
BRANCH  14  18
ATOM     18  C   UNL d   1     -31.020  20.419  26.103  0.00  0.00     0.172 C 
ATOM     19  O   UNL d   1     -30.641  21.301  26.848  0.00  0.00    -0.646 OA
BRANCH  18  20
ATOM     20  O   UNL d   1     -30.572  19.159  26.270  0.00  0.00    -0.773 OA
ATOM     21  H   UNL d   1     -30.372  18.653  25.470  0.00  0.00     0.167 HD
ENDBRANCH  18  20
ENDBRANCH  14  18
ENDBRANCH  10  13
ENDBRANCH   1   9
BRANCH   5  22
ATOM     22  C   UNL d   1     -24.164  23.758  23.164  0.00  0.00    -0.004 A 
ATOM     23  C   UNL d   1     -23.984  25.119  23.410  0.00  0.00     0.045 A 
ATOM     24  C   UNL d   1     -22.747  25.698  23.201  0.00  0.00     0.024 A 
ATOM     25 CL   UNL d   1     -25.312  26.085  23.974  0.00  0.00    -0.083 Cl
ATOM     26  C   UNL d   1     -21.689  24.930  22.750  0.00  0.00     0.002 A 
ATOM     27  C   UNL d   1     -21.862  23.579  22.506  0.00  0.00     0.001 A 
ATOM     28  C   UNL d   1     -23.092  22.988  22.717  0.00  0.00     0.014 A 
ENDBRANCH   5  22
TORSDOF 5
ENDMDL
