MODEL 1
REMARK VINA RESULT:     -10.9      0.000      0.000
REMARK  7 active torsions:
REMARK  status: ('A' for Active; 'I' for Inactive)
REMARK       I    between atoms: N_2  and  C_3 
REMARK    1  A    between atoms: C_3  and  C_5 
REMARK    2  A    between atoms: N_7  and  C_8 
REMARK    3  A    between atoms: C_10  and  O_11 
REMARK    4  A    between atoms: O_11  and  C_12 
REMARK    5  A    between atoms: C_12  and  C_14 
REMARK    6  A    between atoms: C_18  and  C_19 
REMARK       I    between atoms: C_19  and  N_21 
REMARK    7  A    between atoms: N_21  and  C_22 
ROOT
ATOM      1  C   UNL d   1     -26.877  23.241  23.795  0.00  0.00     0.105 A 
ATOM      2  C   UNL d   1     -26.019  22.745  22.824  0.00  0.00     0.073 A 
ATOM      3  C   UNL d   1     -24.759  23.296  22.666  0.00  0.00     0.087 A 
ATOM      4  C   UNL d   1     -24.358  24.365  23.482  0.00  0.00     0.068 A 
ATOM      5  C   UNL d   1     -25.229  24.859  24.457  0.00  0.00     0.064 A 
ATOM      6  C   UNL d   1     -26.479  24.300  24.610  0.00  0.00     0.146 A 
ATOM      7  F   UNL d   1     -27.321  24.780  25.552  0.00  0.00    -0.204 F 
ENDROOT
BRANCH   1   8
ATOM      8  N   UNL d   1     -28.147  22.679  23.956  0.00  0.00    -0.177 N 
ATOM      9  N   UNL d   1     -28.592  21.944  25.063  0.00  0.00    -0.139 NA
ATOM     10  C   UNL d   1     -29.828  21.589  24.841  0.00  0.00     0.222 A 
ATOM     11  N   UNL d   1     -30.209  22.079  23.604  0.00  0.00    -0.281 N 
ATOM     12  C   UNL d   1     -29.167  22.751  23.077  0.00  0.00     0.351 A 
ATOM     13  C   UNL d   1     -31.523  21.902  22.978  0.00  0.00     0.163 C 
ATOM     14  O   UNL d   1     -29.148  23.317  22.000  0.00  0.00    -0.244 OA
BRANCH  10  15
ATOM     15  C   UNL d   1     -30.675  20.800  25.755  0.00  0.00     0.289 C 
ATOM     16  N   UNL d   1     -30.697  19.456  25.662  0.00  0.00    -0.359 N 
ATOM     17  C   UNL d   1     -31.537  18.671  26.570  0.00  0.00     0.149 C 
ATOM     18  H   UNL d   1     -30.155  19.007  24.993  0.00  0.00     0.162 HD
ATOM     19  O   UNL d   1     -31.353  21.363  26.594  0.00  0.00    -0.264 OA
ENDBRANCH  10  15
ENDBRANCH   1   8
BRANCH   3  20
ATOM     20  O   UNL d   1     -23.916  22.808  21.722  0.00  0.00    -0.336 OA
BRANCH  20  21
ATOM     21  C   UNL d   1     -24.013  23.371  20.412  0.00  0.00     0.232 C 
ATOM     22  C   UNL d   1     -22.628  23.821  19.946  0.00  0.00     0.049 C 
BRANCH  21  23
ATOM     23  C   UNL d   1     -24.560  22.319  19.444  0.00  0.00     0.413 C 
ATOM     24  F   UNL d   1     -23.726  21.196  19.457  0.00  0.00    -0.168 F 
ATOM     25  F   UNL d   1     -25.849  21.947  19.839  0.00  0.00    -0.168 F 
ATOM     26  F   UNL d   1     -24.603  22.852  18.152  0.00  0.00    -0.168 F 
ENDBRANCH  21  23
ENDBRANCH  20  21
ENDBRANCH   3  20
BRANCH   4  27
ATOM     27  C   UNL d   1     -23.021  24.960  23.316  0.00  0.00     0.259 C 
ATOM     28  O   UNL d   1     -22.886  25.982  22.670  0.00  0.00    -0.267 OA
ATOM     29  N   UNL d   1     -21.947  24.373  23.881  0.00  0.00    -0.318 N 
ATOM     30  H   UNL d   1     -22.040  23.514  24.323  0.00  0.00     0.169 HD
BRANCH  29  31
ATOM     31  C   UNL d   1     -20.696  25.001  23.827  0.00  0.00     0.113 A 
ATOM     32  C   UNL d   1     -20.350  25.948  24.785  0.00  0.00     0.146 A 
ATOM     33  C   UNL d   1     -19.114  26.567  24.729  0.00  0.00     0.045 A 
ATOM     34  F   UNL d   1     -21.221  26.264  25.768  0.00  0.00    -0.204 F 
ATOM     35  C   UNL d   1     -18.223  26.243  23.723  0.00  0.00     0.006 A 
ATOM     36  C   UNL d   1     -18.563  25.302  22.768  0.00  0.00     0.045 A 
ATOM     37  C   UNL d   1     -19.795  24.675  22.820  0.00  0.00     0.146 A 
ATOM     38  F   UNL d   1     -20.124  23.752  21.891  0.00  0.00    -0.204 F 
ENDBRANCH  29  31
ENDBRANCH   4  27
TORSDOF 7
ENDMDL
