MODEL 1
REMARK VINA RESULT:      -9.9      0.000      0.000
REMARK  8 active torsions:
REMARK  status: ('A' for Active; 'I' for Inactive)
REMARK    1  A    between atoms: C_2  and  C_3 
REMARK    2  A    between atoms: C_3  and  N_4 
REMARK    3  A    between atoms: N_8  and  C_9 
REMARK    4  A    between atoms: C_11  and  O_12 
REMARK    5  A    between atoms: O_12  and  C_13 
REMARK    6  A    between atoms: C_13  and  C_15 
REMARK    7  A    between atoms: C_19  and  C_20 
REMARK       I    between atoms: C_20  and  N_22 
REMARK    8  A    between atoms: N_22  and  C_23 
ROOT
ATOM      1  C   UNL d   1     -26.715  23.333  23.682  0.00  0.00     0.104 A 
ATOM      2  C   UNL d   1     -25.832  22.847  22.727  0.00  0.00     0.073 A 
ATOM      3  C   UNL d   1     -24.576  23.413  22.594  0.00  0.00     0.087 A 
ATOM      4  C   UNL d   1     -24.195  24.470  23.434  0.00  0.00     0.068 A 
ATOM      5  C   UNL d   1     -25.089  24.950  24.398  0.00  0.00     0.064 A 
ATOM      6  C   UNL d   1     -26.338  24.383  24.518  0.00  0.00     0.146 A 
ATOM      7  F   UNL d   1     -27.202  24.847  25.448  0.00  0.00    -0.204 F 
ENDROOT
BRANCH   4   8
ATOM      8  C   UNL d   1     -22.857  25.073  23.303  0.00  0.00     0.259 C 
ATOM      9  O   UNL d   1     -22.711  26.093  22.657  0.00  0.00    -0.267 OA
ATOM     10  N   UNL d   1     -21.796  24.494  23.900  0.00  0.00    -0.318 N 
ATOM     11  H   UNL d   1     -21.920  23.709  24.455  0.00  0.00     0.169 HD
BRANCH  10  12
ATOM     12  C   UNL d   1     -20.513  25.027  23.718  0.00  0.00     0.113 A 
ATOM     13  C   UNL d   1     -19.707  24.566  22.683  0.00  0.00     0.146 A 
ATOM     14  C   UNL d   1     -18.441  25.095  22.507  0.00  0.00     0.045 A 
ATOM     15  F   UNL d   1     -20.161  23.604  21.851  0.00  0.00    -0.204 F 
ATOM     16  C   UNL d   1     -17.976  26.080  23.358  0.00  0.00     0.006 A 
ATOM     17  C   UNL d   1     -18.774  26.541  24.389  0.00  0.00     0.045 A 
ATOM     18  C   UNL d   1     -20.045  26.022  24.568  0.00  0.00     0.146 A 
ATOM     19  F   UNL d   1     -20.825  26.477  25.573  0.00  0.00    -0.204 F 
ENDBRANCH  10  12
ENDBRANCH   4   8
BRANCH   3  20
ATOM     20  O   UNL d   1     -23.714  22.943  21.658  0.00  0.00    -0.336 OA
BRANCH  20  21
ATOM     21  C   UNL d   1     -23.864  23.444  20.327  0.00  0.00     0.232 C 
ATOM     22  C   UNL d   1     -22.501  23.889  19.794  0.00  0.00     0.049 C 
BRANCH  21  23
ATOM     23  C   UNL d   1     -24.428  22.343  19.428  0.00  0.00     0.413 C 
ATOM     24  F   UNL d   1     -23.577  21.232  19.461  0.00  0.00    -0.168 F 
ATOM     25  F   UNL d   1     -25.696  21.972  19.885  0.00  0.00    -0.168 F 
ATOM     26  F   UNL d   1     -24.525  22.816  18.115  0.00  0.00    -0.168 F 
ENDBRANCH  21  23
ENDBRANCH  20  21
ENDBRANCH   3  20
BRANCH   1  27
ATOM     27  N   UNL d   1     -27.984  22.763  23.810  0.00  0.00    -0.178 N 
ATOM     28  N   UNL d   1     -29.054  22.909  22.917  0.00  0.00    -0.149 NA
ATOM     29  C   UNL d   1     -30.057  22.228  23.374  0.00  0.00     0.127 A 
ATOM     30  N   UNL d   1     -29.687  21.638  24.558  0.00  0.00    -0.285 N 
ATOM     31  C   UNL d   1     -31.407  22.108  22.718  0.00  0.00     0.093 C 
ATOM     32  C   UNL d   1     -28.406  21.969  24.816  0.00  0.00     0.351 A 
ATOM     33  O   UNL d   1     -27.752  21.618  25.782  0.00  0.00    -0.244 OA
BRANCH  30  34
ATOM     34  C   UNL d   1     -30.537  20.785  25.393  0.00  0.00     0.135 C 
BRANCH  34  35
ATOM     35  C   UNL d   1     -31.869  21.494  25.654  0.00  0.00     0.016 C 
ATOM     36  C   UNL d   1     -33.019  20.503  25.466  0.00  0.00     0.006 C 
ENDBRANCH  34  35
ENDBRANCH  30  34
ENDBRANCH   1  27
TORSDOF 8
ENDMDL
