MODEL 1
REMARK VINA RESULT:     -10.0      0.000      0.000
REMARK  9 active torsions:
REMARK  status: ('A' for Active; 'I' for Inactive)
REMARK    1  A    between atoms: C_2  and  C_3 
REMARK    2  A    between atoms: C_3  and  O_4 
REMARK    3  A    between atoms: C_5  and  C_8 
REMARK       I    between atoms: C_8  and  N_10 
REMARK    4  A    between atoms: N_10  and  C_11 
REMARK    5  A    between atoms: C_14  and  C_15 
REMARK    6  A    between atoms: C_19  and  O_20 
REMARK    7  A    between atoms: O_20  and  C_21 
REMARK    8  A    between atoms: C_25  and  C_26 
REMARK    9  A    between atoms: C_26  and  O_28 
ROOT
ATOM      1  C   UNL d   1     -32.228  21.709  22.859  0.00  0.00     0.069 C 
ATOM      2  C   UNL d   1     -31.281  21.898  23.822  0.00  0.00     0.141 C 
ATOM      3  C   UNL d   1     -31.575  21.583  25.187  0.00  0.00     0.107 C 
ATOM      4  N   UNL d   1     -31.808  21.333  26.271  0.00  0.00    -0.191 NA
ENDROOT
BRANCH   2   5
ATOM      5  C   UNL d   1     -29.958  22.427  23.458  0.00  0.00     0.269 C 
ATOM      6  O   UNL d   1     -29.841  23.162  22.496  0.00  0.00    -0.266 OA
ATOM      7  N   UNL d   1     -28.875  22.095  24.188  0.00  0.00    -0.322 N 
ATOM      8  H   UNL d   1     -28.978  21.562  24.992  0.00  0.00     0.169 HD
BRANCH   7   9
ATOM      9  C   UNL d   1     -27.605  22.520  23.789  0.00  0.00     0.036 A 
ATOM     10  C   UNL d   1     -26.994  21.931  22.693  0.00  0.00     0.048 A 
ATOM     11  C   UNL d   1     -25.727  22.355  22.293  0.00  0.00     0.052 A 
ATOM     12  C   UNL d   1     -25.078  23.379  23.007  0.00  0.00    -0.009 A 
ATOM     13  C   UNL d   1     -25.704  23.955  24.110  0.00  0.00     0.015 A 
ATOM     14  C   UNL d   1     -26.959  23.533  24.492  0.00  0.00     0.030 A 
BRANCH  11  15
ATOM     15  C   UNL d   1     -25.070  21.733  21.128  0.00  0.00     0.293 C 
ATOM     16  O   UNL d   1     -24.249  20.853  21.290  0.00  0.00    -0.259 OA
BRANCH  15  17
ATOM     17  O   UNL d   1     -25.381  22.142  19.881  0.00  0.00    -0.322 OA
ATOM     18  C   UNL d   1     -24.282  22.297  18.945  0.00  0.00     0.213 C 
ENDBRANCH  15  17
ENDBRANCH  11  15
BRANCH  12  19
ATOM     19  C   UNL d   1     -23.732  23.837  22.593  0.00  0.00    -0.022 A 
ATOM     20  C   UNL d   1     -22.625  23.570  23.396  0.00  0.00     0.049 A 
ATOM     21  C   UNL d   1     -21.368  24.002  23.003  0.00  0.00     0.075 A 
ATOM     22  C   UNL d   1     -21.215  24.701  21.815  0.00  0.00     0.037 A 
ATOM     23  C   UNL d   1     -22.312  24.962  21.014  0.00  0.00     0.004 A 
ATOM     24  C   UNL d   1     -23.568  24.536  21.397  0.00  0.00     0.012 A 
BRANCH  21  25
ATOM     25  O   UNL d   1     -20.286  23.744  23.784  0.00  0.00    -0.290 OA
BRANCH  25  26
ATOM     26  C   UNL d   1     -19.725  24.846  24.498  0.00  0.00     0.505 C 
ATOM     27  F   UNL d   1     -20.741  25.742  24.849  0.00  0.00    -0.184 F 
ATOM     28  F   UNL d   1     -18.788  25.498  23.689  0.00  0.00    -0.184 F 
ENDBRANCH  25  26
ENDBRANCH  21  25
ENDBRANCH  12  19
ENDBRANCH   7   9
ENDBRANCH   2   5
BRANCH   1  29
ATOM     29  C   UNL d   1     -33.584  21.167  23.233  0.00  0.00     0.061 C 
ATOM     30  C   UNL d   1     -34.126  20.314  22.084  0.00  0.00     0.012 C 
ENDBRANCH   1  29
BRANCH   1  31
ATOM     31  O   UNL d   1     -31.952  22.004  21.578  0.00  0.00    -0.363 OA
ATOM     32  H   UNL d   1     -31.985  22.937  21.324  0.00  0.00     0.217 HD
ENDBRANCH   1  31
TORSDOF 9
ENDMDL
