MODEL 1
REMARK VINA RESULT:     -11.4      0.000      0.000
REMARK  7 active torsions:
REMARK  status: ('A' for Active; 'I' for Inactive)
REMARK    1  A    between atoms: C_5  and  C_6 
REMARK    2  A    between atoms: C_10  and  O_11 
REMARK    3  A    between atoms: O_11  and  C_12 
REMARK    4  A    between atoms: C_19  and  N_20 
REMARK       I    between atoms: N_20  and  C_21 
REMARK    5  A    between atoms: C_21  and  C_23 
REMARK    6  A    between atoms: C_24  and  C_25 
REMARK    7  A    between atoms: C_25  and  O_27 
ROOT
ATOM      1  N   UNL d   1     -27.994  20.816  20.682  0.00  0.00    -0.191 NA
ATOM      2  C   UNL d   1     -27.644  21.444  21.562  0.00  0.00     0.102 C 
ATOM      3  C   UNL d   1     -27.203  22.236  22.670  0.00  0.00     0.072 A 
ATOM      4  C   UNL d   1     -26.024  22.975  22.578  0.00  0.00     0.037 A 
ATOM      5  C   UNL d   1     -25.602  23.742  23.658  0.00  0.00    -0.024 A 
ATOM      6  C   UNL d   1     -26.357  23.771  24.832  0.00  0.00     0.014 A 
ATOM      7  C   UNL d   1     -27.522  23.041  24.928  0.00  0.00     0.032 A 
ATOM      8  C   UNL d   1     -27.955  22.272  23.855  0.00  0.00     0.056 A 
ENDROOT
BRANCH   8   9
ATOM      9  N   UNL d   1     -29.130  21.533  23.958  0.00  0.00    -0.322 N 
ATOM     10  C   UNL d   1     -30.316  22.111  23.685  0.00  0.00     0.253 C 
ATOM     11  O   UNL d   1     -30.354  23.245  23.253  0.00  0.00    -0.268 OA
ATOM     12  H   UNL d   1     -29.094  20.601  24.225  0.00  0.00     0.169 HD
BRANCH  10  13
ATOM     13  C   UNL d   1     -31.569  21.365  23.912  0.00  0.00     0.023 C 
ATOM     14  C   UNL d   1     -32.728  21.313  22.944  0.00  0.00     0.045 C 
ATOM     15  C   UNL d   1     -33.576  20.104  23.406  0.00  0.00     0.010 C 
ATOM     16  C   UNL d   1     -33.212  20.017  24.906  0.00  0.00     0.046 C 
ATOM     17  C   UNL d   1     -31.841  20.645  25.009  0.00  0.00     0.027 C 
BRANCH  17  18
ATOM     18  C   UNL d   1     -30.930  20.486  26.158  0.00  0.00     0.172 C 
ATOM     19  O   UNL d   1     -30.500  21.468  26.732  0.00  0.00    -0.646 OA
BRANCH  18  20
ATOM     20  O   UNL d   1     -30.575  19.254  26.571  0.00  0.00    -0.773 OA
ATOM     21  H   UNL d   1     -30.741  18.522  25.962  0.00  0.00     0.167 HD
ENDBRANCH  18  20
ENDBRANCH  17  18
ENDBRANCH  10  13
ENDBRANCH   8   9
BRANCH   5  22
ATOM     22  C   UNL d   1     -24.349  24.529  23.563  0.00  0.00    -0.023 A 
ATOM     23  C   UNL d   1     -23.128  23.882  23.393  0.00  0.00     0.049 A 
ATOM     24  C   UNL d   1     -21.961  24.624  23.304  0.00  0.00     0.079 A 
ATOM     25  C   UNL d   1     -22.011  26.009  23.385  0.00  0.00     0.037 A 
ATOM     26  C   UNL d   1     -23.223  26.652  23.555  0.00  0.00     0.004 A 
ATOM     27  C   UNL d   1     -24.391  25.921  23.638  0.00  0.00     0.012 A 
BRANCH  24  28
ATOM     28  O   UNL d   1     -20.768  23.995  23.137  0.00  0.00    -0.255 OA
BRANCH  28  29
ATOM     29  C   UNL d   1     -19.998  24.361  21.990  0.00  0.00     0.530 C 
ATOM     30  F   UNL d   1     -20.858  24.746  20.954  0.00  0.00    -0.144 F 
ATOM     31  F   UNL d   1     -19.153  25.427  22.315  0.00  0.00    -0.144 F 
ATOM     32  F   UNL d   1     -19.230  23.268  21.575  0.00  0.00    -0.144 F 
ENDBRANCH  28  29
ENDBRANCH  24  28
ENDBRANCH   5  22
TORSDOF 7
ENDMDL
