MODEL 1
REMARK VINA RESULT:      -7.6      0.000      0.000
REMARK  7 active torsions:
REMARK  status: ('A' for Active; 'I' for Inactive)
REMARK    1  A    between atoms: C_2  and  C_4 
REMARK    2  A    between atoms: N_6  and  C_7 
REMARK    3  A    between atoms: C_12  and  O_13 
REMARK    4  A    between atoms: C_23  and  N_24 
REMARK    5  A    between atoms: C_26  and  C_27 
REMARK    6  A    between atoms: C_27  and  O_28 
REMARK    7  A    between atoms: N_29  and  C_30 
ROOT
ATOM      1  C   UNL d   1     -19.553  26.785  25.204  0.00  0.00    -0.004 A 
ATOM      2  C   UNL d   1     -18.365  27.310  25.599  0.00  0.00     0.113 A 
ATOM      3  N   UNL d   1     -17.209  27.087  24.911  0.00  0.00    -0.286 N 
ATOM      4  C   UNL d   1     -17.165  26.331  23.796  0.00  0.00     0.263 A 
ATOM      5  O   UNL d   1     -16.109  26.158  23.215  0.00  0.00    -0.267 OA
ATOM      6  C   UNL d   1     -18.397  25.720  23.288  0.00  0.00     0.047 A 
ATOM      7  C   UNL d   1     -18.405  24.930  22.137  0.00  0.00     0.062 A 
ATOM      8  C   UNL d   1     -19.578  24.380  21.700  0.00  0.00     0.146 A 
ATOM      9  F   UNL d   1     -19.583  23.616  20.586  0.00  0.00    -0.204 F 
ATOM     10  C   UNL d   1     -20.771  24.599  22.394  0.00  0.00     0.103 A 
ATOM     11  C   UNL d   1     -20.787  25.385  23.535  0.00  0.00     0.048 A 
ATOM     12  C   UNL d   1     -19.600  25.946  23.994  0.00  0.00    -0.006 A 
ENDROOT
BRANCH  10  13
ATOM     13  N   UNL d   1     -21.958  24.028  21.929  0.00  0.00    -0.178 N 
ATOM     14  C   UNL d   1     -22.531  24.240  20.725  0.00  0.00     0.351 A 
ATOM     15  N   UNL d   1     -23.658  23.501  20.680  0.00  0.00    -0.283 N 
ATOM     16  O   UNL d   1     -22.108  24.965  19.844  0.00  0.00    -0.244 OA
ATOM     17  C   UNL d   1     -23.783  22.829  21.871  0.00  0.00     0.154 A 
ATOM     18  N   UNL d   1     -22.775  23.128  22.626  0.00  0.00    -0.147 NA
BRANCH  15  19
ATOM     19  C   UNL d   1     -24.592  23.431  19.554  0.00  0.00     0.131 C 
ATOM     20  C   UNL d   1     -24.195  22.275  18.632  0.00  0.00     0.027 C 
ENDBRANCH  15  19
BRANCH  17  21
ATOM     21  C   UNL d   1     -24.907  21.894  22.236  0.00  0.00     0.244 C 
BRANCH  21  22
ATOM     22  O   UNL d   1     -24.735  20.652  21.549  0.00  0.00    -0.393 OA
ATOM     23  H   UNL d   1     -25.564  20.190  21.361  0.00  0.00     0.209 HD
ENDBRANCH  21  22
ENDBRANCH  17  21
ENDBRANCH  10  13
BRANCH   1  24
ATOM     24  C   UNL d   1     -20.782  27.051  25.977  0.00  0.00    -0.059 C 
ATOM     25  C   UNL d   1     -20.894  26.603  27.221  0.00  0.00     0.019 C 
ATOM     26  C   UNL d   1     -21.910  27.832  25.353  0.00  0.00     0.048 C 
ENDBRANCH   1  24
BRANCH   3  27
ATOM     27  C   UNL d   1     -16.024  27.662  25.380  0.00  0.00     0.075 A 
ATOM     28  C   UNL d   1     -15.534  28.840  24.821  0.00  0.00     0.114 A 
ATOM     29  C   UNL d   1     -14.353  29.378  25.315  0.00  0.00     0.188 A 
ATOM     30 CL   UNL d   1     -16.386  29.622  23.527  0.00  0.00    -0.077 Cl
ATOM     31  N   UNL d   1     -13.701  28.784  26.301  0.00  0.00    -0.235 NA
ATOM     32  C   UNL d   1     -14.139  27.667  26.853  0.00  0.00     0.128 A 
ATOM     33  C   UNL d   1     -15.306  27.074  26.421  0.00  0.00    -0.015 A 
ATOM     34  C   UNL d   1     -15.798  25.803  27.063  0.00  0.00     0.052 C 
BRANCH  29  35
ATOM     35  O   UNL d   1     -13.863  30.525  24.781  0.00  0.00    -0.338 OA
ATOM     36  C   UNL d   1     -14.057  31.725  25.531  0.00  0.00     0.211 C 
ENDBRANCH  29  35
ENDBRANCH   3  27
TORSDOF 7
ENDMDL
