MODEL 1
REMARK VINA RESULT:     -10.6      0.000      0.000
REMARK  7 active torsions:
REMARK  status: ('A' for Active; 'I' for Inactive)
REMARK    1  A    between atoms: C_2  and  O_3 
REMARK    2  A    between atoms: C_2  and  C_34 
REMARK    3  A    between atoms: O_3  and  C_4 
REMARK    4  A    between atoms: C_6  and  N_7 
REMARK    5  A    between atoms: C_9  and  C_10 
REMARK    6  A    between atoms: C_22  and  C_23 
REMARK       I    between atoms: C_23  and  N_25 
REMARK    7  A    between atoms: N_25  and  C_26 
ROOT
ATOM      1  C   UNL d   1     -24.839  23.299  22.675  0.00  0.00     0.087 A 
ATOM      2  C   UNL d   1     -26.100  22.770  22.882  0.00  0.00     0.073 A 
ATOM      3  C   UNL d   1     -26.930  23.311  23.856  0.00  0.00     0.104 A 
ATOM      4  C   UNL d   1     -26.492  24.382  24.634  0.00  0.00     0.146 A 
ATOM      5  F   UNL d   1     -27.304  24.900  25.583  0.00  0.00    -0.204 F 
ATOM      6  C   UNL d   1     -25.238  24.913  24.439  0.00  0.00     0.064 A 
ATOM      7  C   UNL d   1     -24.398  24.377  23.457  0.00  0.00     0.068 A 
ENDROOT
BRANCH   3   8
ATOM      8  N   UNL d   1     -28.205  22.778  24.058  0.00  0.00    -0.178 N 
ATOM      9  C   UNL d   1     -28.563  21.906  25.024  0.00  0.00     0.351 A 
ATOM     10  N   UNL d   1     -29.876  21.644  24.864  0.00  0.00    -0.288 N 
ATOM     11  O   UNL d   1     -27.835  21.440  25.882  0.00  0.00    -0.244 OA
ATOM     12  C   UNL d   1     -30.334  22.369  23.791  0.00  0.00     0.135 A 
ATOM     13  C   UNL d   1     -30.678  20.744  25.696  0.00  0.00     0.162 C 
ATOM     14  N   UNL d   1     -29.350  23.052  23.298  0.00  0.00    -0.149 NA
BRANCH  12  15
ATOM     15  C   UNL d   1     -31.749  22.370  23.272  0.00  0.00     0.057 C 
ATOM     16  C   UNL d   1     -31.746  22.331  21.734  0.00  0.00     0.012 C 
ATOM     17  C   UNL d   1     -32.482  21.038  21.326  0.00  0.00     0.001 C 
ATOM     18  C   UNL d   1     -33.383  20.713  22.543  0.00  0.00     0.001 C 
ATOM     19  C   UNL d   1     -32.486  21.101  23.745  0.00  0.00     0.012 C 
ENDBRANCH  12  15
ENDBRANCH   3   8
BRANCH   1  20
ATOM     20  O   UNL d   1     -24.030  22.774  21.720  0.00  0.00    -0.336 OA
BRANCH  20  21
ATOM     21  C   UNL d   1     -24.122  23.337  20.410  0.00  0.00     0.232 C 
ATOM     22  C   UNL d   1     -22.736  23.800  19.955  0.00  0.00     0.049 C 
BRANCH  21  23
ATOM     23  C   UNL d   1     -24.652  22.281  19.438  0.00  0.00     0.413 C 
ATOM     24  F   UNL d   1     -24.670  22.807  18.141  0.00  0.00    -0.168 F 
ATOM     25  F   UNL d   1     -23.819  21.156  19.473  0.00  0.00    -0.168 F 
ATOM     26  F   UNL d   1     -25.948  21.913  19.810  0.00  0.00    -0.168 F 
ENDBRANCH  21  23
ENDBRANCH  20  21
ENDBRANCH   1  20
BRANCH   7  27
ATOM     27  C   UNL d   1     -23.054  24.942  23.245  0.00  0.00     0.259 C 
ATOM     28  O   UNL d   1     -22.917  25.959  22.592  0.00  0.00    -0.267 OA
ATOM     29  N   UNL d   1     -21.976  24.332  23.776  0.00  0.00    -0.318 N 
ATOM     30  H   UNL d   1     -22.073  23.478  24.225  0.00  0.00     0.169 HD
BRANCH  29  31
ATOM     31  C   UNL d   1     -20.713  24.932  23.679  0.00  0.00     0.113 A 
ATOM     32  C   UNL d   1     -20.342  25.924  24.580  0.00  0.00     0.146 A 
ATOM     33  C   UNL d   1     -19.094  26.514  24.481  0.00  0.00     0.045 A 
ATOM     34  F   UNL d   1     -21.199  26.310  25.550  0.00  0.00    -0.204 F 
ATOM     35  C   UNL d   1     -18.217  26.118  23.488  0.00  0.00     0.006 A 
ATOM     36  C   UNL d   1     -18.583  25.132  22.590  0.00  0.00     0.045 A 
ATOM     37  C   UNL d   1     -19.826  24.533  22.687  0.00  0.00     0.146 A 
ATOM     38  F   UNL d   1     -20.180  23.566  21.812  0.00  0.00    -0.204 F 
ENDBRANCH  29  31
ENDBRANCH   7  27
TORSDOF 7
ENDMDL
