MODEL 1
REMARK VINA RESULT:     -11.8      0.000      0.000
REMARK  6 active torsions:
REMARK  status: ('A' for Active; 'I' for Inactive)
REMARK    1  A    between atoms: C_4  and  C_5 
REMARK    2  A    between atoms: C_5  and  O_7 
REMARK    3  A    between atoms: C_11  and  C_12 
REMARK    4  A    between atoms: C_15  and  C_16 
REMARK    5  A    between atoms: C_19  and  O_20 
REMARK    6  A    between atoms: C_21  and  O_22 
ROOT
ATOM      1  C   UNL d   1     -26.571  22.858  22.967  0.00  0.00     0.010 A 
ATOM      2  C   UNL d   1     -26.003  23.911  23.688  0.00  0.00     0.016 A 
ATOM      3  C   UNL d   1     -24.674  24.222  23.519  0.00  0.00     0.013 A 
ATOM      4  C   UNL d   1     -23.892  23.486  22.629  0.00  0.00    -0.026 A 
ATOM      5  C   UNL d   1     -24.458  22.434  21.908  0.00  0.00     0.013 A 
ATOM      6  C   UNL d   1     -25.788  22.121  22.074  0.00  0.00     0.016 A 
ENDROOT
BRANCH   1   7
ATOM      7  C   UNL d   1     -27.999  22.523  23.147  0.00  0.00     0.139 A 
ATOM      8  N   UNL d   1     -28.551  22.016  24.294  0.00  0.00    -0.338 N 
ATOM      9  C   UNL d   1     -29.896  21.844  24.058  0.00  0.00     0.080 A 
ATOM     10  H   UNL d   1     -28.082  21.815  25.119  0.00  0.00     0.167 HD
ATOM     11  C   UNL d   1     -30.966  21.370  24.831  0.00  0.00     0.067 A 
ATOM     12  C   UNL d   1     -30.122  22.265  22.737  0.00  0.00     0.087 A 
ATOM     13  C   UNL d   1     -32.245  21.322  24.278  0.00  0.00     0.027 A 
ATOM     14  C   UNL d   1     -32.458  21.737  22.976  0.00  0.00    -0.059 A 
ATOM     15  C   UNL d   1     -33.847  21.679  22.394  0.00  0.00     0.048 C 
ATOM     16  C   UNL d   1     -31.415  22.206  22.207  0.00  0.00     0.040 A 
ATOM     17  N   UNL d   1     -28.930  22.671  22.237  0.00  0.00    -0.228 NA
BRANCH  11  18
ATOM     18  C   UNL d   1     -30.739  20.925  26.218  0.00  0.00     0.178 C 
ATOM     19  O   UNL d   1     -30.095  21.617  26.981  0.00  0.00    -0.646 OA
BRANCH  18  20
ATOM     20  O   UNL d   1     -31.248  19.751  26.640  0.00  0.00    -0.773 OA
ATOM     21  H   UNL d   1     -32.031  19.420  26.179  0.00  0.00     0.167 HD
ENDBRANCH  18  20
ENDBRANCH  11  18
ENDBRANCH   1   7
BRANCH   4  22
ATOM     22  C   UNL d   1     -22.461  23.825  22.443  0.00  0.00    -0.023 A 
ATOM     23  C   UNL d   1     -21.615  23.914  23.547  0.00  0.00     0.051 A 
ATOM     24  C   UNL d   1     -20.280  24.227  23.368  0.00  0.00     0.099 A 
ATOM     25  C   UNL d   1     -19.785  24.463  22.088  0.00  0.00     0.098 A 
ATOM     26  C   UNL d   1     -20.628  24.379  20.990  0.00  0.00     0.040 A 
ATOM     27  C   UNL d   1     -21.960  24.063  21.163  0.00  0.00     0.015 A 
BRANCH  24  28
ATOM     28  O   UNL d   1     -19.450  24.309  24.443  0.00  0.00    -0.358 OA
ATOM     29  H   UNL d   1     -19.837  23.978  25.264  0.00  0.00     0.217 HD
ENDBRANCH  24  28
BRANCH  25  30
ATOM     30  O   UNL d   1     -18.474  24.775  21.913  0.00  0.00    -0.358 OA
ATOM     31  H   UNL d   1     -18.074  24.374  21.129  0.00  0.00     0.217 HD
ENDBRANCH  25  30
ENDBRANCH   4  22
TORSDOF 6
ENDMDL
