MODEL 1
REMARK VINA RESULT:     -10.1      0.000      0.000
REMARK  7 active torsions:
REMARK  status: ('A' for Active; 'I' for Inactive)
REMARK    1  A    between atoms: C_2  and  C_3 
REMARK    2  A    between atoms: C_3  and  C_4 
REMARK    3  A    between atoms: C_4  and  O_6 
REMARK    4  A    between atoms: O_6  and  C_7 
REMARK    5  A    between atoms: C_9  and  N_10 
REMARK    6  A    between atoms: C_23  and  C_24 
REMARK       I    between atoms: C_24  and  N_26 
REMARK    7  A    between atoms: N_26  and  C_27 
ROOT
ATOM      1  C   UNL d   1     -26.023  23.286  23.407  0.00  0.00     0.087 A 
ATOM      2  C   UNL d   1     -27.398  23.133  23.426  0.00  0.00     0.073 A 
ATOM      3  C   UNL d   1     -28.013  22.261  22.538  0.00  0.00     0.104 A 
ATOM      4  C   UNL d   1     -27.249  21.534  21.625  0.00  0.00     0.146 A 
ATOM      5  F   UNL d   1     -27.854  20.687  20.765  0.00  0.00    -0.204 F 
ATOM      6  C   UNL d   1     -25.880  21.679  21.598  0.00  0.00     0.064 A 
ATOM      7  C   UNL d   1     -25.253  22.561  22.485  0.00  0.00     0.068 A 
ENDROOT
BRANCH   7   8
ATOM      8  C   UNL d   1     -23.790  22.724  22.454  0.00  0.00     0.260 C 
ATOM      9  O   UNL d   1     -23.066  21.762  22.624  0.00  0.00    -0.267 OA
ATOM     10  N   UNL d   1     -23.252  23.941  22.237  0.00  0.00    -0.306 N 
ATOM     11  H   UNL d   1     -23.829  24.709  22.102  0.00  0.00     0.170 HD
BRANCH  10  12
ATOM     12  C   UNL d   1     -21.871  24.095  22.209  0.00  0.00     0.155 A 
ATOM     13  C   UNL d   1     -21.192  24.175  20.992  0.00  0.00     0.097 A 
ATOM     14  C   UNL d   1     -19.817  24.334  21.017  0.00  0.00     0.145 A 
ATOM     15 CL   UNL d   1     -22.050  24.083  19.485  0.00  0.00    -0.079 Cl
ATOM     16  N   UNL d   1     -19.196  24.393  22.186  0.00  0.00    -0.252 NA
ATOM     17  C   UNL d   1     -19.867  24.309  23.316  0.00  0.00     0.235 A 
ATOM     18  N   UNL d   1     -21.176  24.163  23.340  0.00  0.00    -0.223 NA
ENDBRANCH  10  12
ENDBRANCH   7   8
BRANCH   1  19
ATOM     19  O   UNL d   1     -25.421  24.139  24.274  0.00  0.00    -0.345 OA
BRANCH  19  20
ATOM     20  C   UNL d   1     -25.754  25.523  24.158  0.00  0.00     0.124 C 
ATOM     21  C   UNL d   1     -26.247  26.045  25.510  0.00  0.00     0.040 C 
BRANCH  20  22
ATOM     22  C   UNL d   1     -24.516  26.313  23.730  0.00  0.00     0.032 C 
BRANCH  22  23
ATOM     23  C   UNL d   1     -23.496  26.321  24.871  0.00  0.00    -0.002 C 
ATOM     24  C   UNL d   1     -22.320  27.224  24.498  0.00  0.00     0.005 C 
ENDBRANCH  22  23
ENDBRANCH  20  22
ENDBRANCH  19  20
ENDBRANCH   1  19
BRANCH   3  25
ATOM     25  N   UNL d   1     -29.401  22.109  22.560  0.00  0.00    -0.178 N 
ATOM     26  C   UNL d   1     -30.155  21.791  23.634  0.00  0.00     0.351 A 
ATOM     27  N   UNL d   1     -31.437  21.773  23.233  0.00  0.00    -0.284 N 
ATOM     28  O   UNL d   1     -29.748  21.564  24.759  0.00  0.00    -0.244 OA
ATOM     29  C   UNL d   1     -31.472  22.047  21.882  0.00  0.00     0.131 A 
ATOM     30  C   UNL d   1     -32.627  21.534  24.057  0.00  0.00     0.135 C 
ATOM     31  N   UNL d   1     -30.270  22.266  21.469  0.00  0.00    -0.149 NA
ATOM     32  C   UNL d   1     -32.742  22.065  21.062  0.00  0.00     0.081 C 
ATOM     33  C   UNL d   1     -33.928  22.201  22.027  0.00  0.00     0.009 C 
ATOM     34  C   UNL d   1     -33.792  21.152  23.136  0.00  0.00     0.021 C 
ENDBRANCH   3  25
TORSDOF 7
ENDMDL
