MODEL 1
REMARK VINA RESULT:      -9.3      0.000      0.000
REMARK  7 active torsions:
REMARK  status: ('A' for Active; 'I' for Inactive)
REMARK    1  A    between atoms: C_2  and  C_3 
REMARK    2  A    between atoms: C_3  and  O_5 
REMARK    3  A    between atoms: O_5  and  C_6 
REMARK    4  A    between atoms: C_8  and  N_9 
REMARK       I    between atoms: N_9  and  C_10 
REMARK    5  A    between atoms: C_10  and  C_12 
REMARK    6  A    between atoms: C_15  and  O_17 
REMARK    7  A    between atoms: C_21  and  C_22 
ROOT
ATOM      1  C   UNL d   1     -31.110  21.999  22.627  0.00  0.00     0.141 C 
ATOM      2  C   UNL d   1     -31.868  22.014  21.411  0.00  0.00     0.107 C 
ATOM      3  N   UNL d   1     -32.468  22.026  20.447  0.00  0.00    -0.191 NA
ATOM      4  C   UNL d   1     -31.680  21.547  23.780  0.00  0.00     0.065 C 
ATOM      5  C   UNL d   1     -33.108  21.064  23.775  0.00  0.00     0.077 C 
ENDROOT
BRANCH   1   6
ATOM      6  C   UNL d   1     -29.718  22.471  22.631  0.00  0.00     0.269 C 
ATOM      7  N   UNL d   1     -28.754  21.721  23.201  0.00  0.00    -0.320 N 
ATOM      8  H   UNL d   1     -28.970  20.846  23.561  0.00  0.00     0.169 HD
ATOM      9  O   UNL d   1     -29.435  23.539  22.120  0.00  0.00    -0.266 OA
BRANCH   7  10
ATOM     10  C   UNL d   1     -27.444  22.205  23.278  0.00  0.00     0.076 A 
ATOM     11  C   UNL d   1     -26.546  21.935  22.254  0.00  0.00     0.070 A 
ATOM     12  C   UNL d   1     -25.248  22.412  22.328  0.00  0.00     0.082 A 
ATOM     13  C   UNL d   1     -24.846  23.167  23.434  0.00  0.00     0.011 A 
ATOM     14  C   UNL d   1     -25.752  23.436  24.458  0.00  0.00     0.059 A 
ATOM     15  C   UNL d   1     -27.044  22.957  24.379  0.00  0.00     0.144 A 
ATOM     16  F   UNL d   1     -27.921  23.218  25.372  0.00  0.00    -0.204 F 
BRANCH  12  17
ATOM     17  O   UNL d   1     -24.368  22.148  21.326  0.00  0.00    -0.345 OA
BRANCH  17  18
ATOM     18  C   UNL d   1     -24.292  23.100  20.263  0.00  0.00     0.124 C 
ATOM     19  C   UNL d   1     -24.859  22.482  18.983  0.00  0.00     0.040 C 
BRANCH  18  20
ATOM     20  C   UNL d   1     -22.832  23.495  20.035  0.00  0.00     0.027 C 
ATOM     21  C   UNL d   1     -22.677  25.005  20.219  0.00  0.00     0.007 C 
ENDBRANCH  18  20
ENDBRANCH  17  18
ENDBRANCH  12  17
BRANCH  13  22
ATOM     22  C   UNL d   1     -23.455  23.676  23.519  0.00  0.00    -0.015 A 
ATOM     23  C   UNL d   1     -23.218  25.035  23.712  0.00  0.00    -0.029 A 
ATOM     24  C   UNL d   1     -21.921  25.502  23.792  0.00  0.00     0.040 A 
ATOM     25  C   UNL d   1     -24.375  25.993  23.836  0.00  0.00     0.050 C 
ATOM     26  C   UNL d   1     -20.859  24.623  23.679  0.00  0.00     0.024 A 
ATOM     27 CL   UNL d   1     -21.623  27.195  24.034  0.00  0.00    -0.084 Cl
ATOM     28  C   UNL d   1     -21.088  23.273  23.486  0.00  0.00     0.003 A 
ATOM     29  C   UNL d   1     -22.381  22.794  23.411  0.00  0.00     0.013 A 
ENDBRANCH  13  22
ENDBRANCH   7  10
ENDBRANCH   1   6
BRANCH   4  30
ATOM     30  O   UNL d   1     -30.970  21.533  24.920  0.00  0.00    -0.364 OA
ATOM     31  H   UNL d   1     -31.360  21.976  25.687  0.00  0.00     0.217 HD
ENDBRANCH   4  30
TORSDOF 7
ENDMDL
