MODEL 1
REMARK VINA RESULT:      -9.8      0.000      0.000
REMARK  5 active torsions:
REMARK  status: ('A' for Active; 'I' for Inactive)
REMARK    1  A    between atoms: C_8  and  C_9 
REMARK    2  A    between atoms: C_11  and  C_12 
REMARK    3  A    between atoms: C_17  and  C_18 
REMARK    4  A    between atoms: C_20  and  C_21 
REMARK    5  A    between atoms: C_21  and  O_24 
ROOT
ATOM      1  C   UNL d   1     -31.289  21.189  24.364  0.00  0.00     0.049 A 
ATOM      2  C   UNL d   1     -31.065  21.491  23.019  0.00  0.00     0.028 A 
ATOM      3  C   UNL d   1     -29.888  22.117  22.655  0.00  0.00    -0.026 A 
ATOM      4  C   UNL d   1     -28.942  22.437  23.633  0.00  0.00     0.050 A 
ATOM      5  C   UNL d   1     -27.750  23.078  23.260  0.00  0.00     0.049 A 
ATOM      6  C   UNL d   1     -26.814  23.387  24.232  0.00  0.00     0.056 A 
ATOM      7  C   UNL d   1     -27.089  23.057  25.581  0.00  0.00     0.146 A 
ATOM      8  F   UNL d   1     -26.189  23.356  26.544  0.00  0.00    -0.204 F 
ATOM      9  C   UNL d   1     -28.246  22.447  25.907  0.00  0.00     0.144 A 
ATOM     10  N   UNL d   1     -29.174  22.133  24.952  0.00  0.00    -0.285 N 
ATOM     11  C   UNL d   1     -30.318  21.523  25.320  0.00  0.00     0.263 A 
ATOM     12  O   UNL d   1     -30.511  21.259  26.498  0.00  0.00    -0.267 OA
ENDROOT
BRANCH   6  13
ATOM     13  C   UNL d   1     -25.546  24.057  23.866  0.00  0.00     0.184 A 
ATOM     14  N   UNL d   1     -25.366  25.357  23.765  0.00  0.00    -0.150 NA
ATOM     15  N   UNL d   1     -24.023  25.552  23.405  0.00  0.00    -0.256 N 
ATOM     16  C   UNL d   1     -23.473  24.328  23.301  0.00  0.00     0.158 A 
ATOM     17  C   UNL d   1     -23.352  26.835  23.181  0.00  0.00     0.181 C 
ATOM     18  N   UNL d   1     -24.390  23.441  23.582  0.00  0.00    -0.208 NA
BRANCH  16  19
ATOM     19  C   UNL d   1     -22.042  24.032  22.931  0.00  0.00     0.112 C 
ATOM     20  C   UNL d   1     -21.107  24.920  23.754  0.00  0.00     0.054 C 
ATOM     21  C   UNL d   1     -21.832  24.312  21.441  0.00  0.00     0.054 C 
BRANCH  19  22
ATOM     22  O   UNL d   1     -21.756  22.657  23.202  0.00  0.00    -0.383 OA
ATOM     23  H   UNL d   1     -21.834  22.415  24.134  0.00  0.00     0.211 HD
ENDBRANCH  19  22
ENDBRANCH  16  19
ENDBRANCH   6  13
BRANCH   3  24
ATOM     24  C   UNL d   1     -29.626  22.452  21.210  0.00  0.00     0.013 C 
ATOM     25  C   UNL d   1     -28.565  21.504  20.650  0.00  0.00     0.015 C 
ATOM     26  C   UNL d   1     -30.920  22.301  20.408  0.00  0.00     0.015 C 
ENDBRANCH   3  24
BRANCH   1  27
ATOM     27  C   UNL d   1     -32.544  20.518  24.779  0.00  0.00     0.045 A 
ATOM     28  C   UNL d   1     -32.649  19.407  25.640  0.00  0.00     0.065 A 
ATOM     29  C   UNL d   1     -31.501  18.690  26.301  0.00  0.00     0.073 C 
ATOM     30  N   UNL d   1     -33.916  19.109  25.767  0.00  0.00    -0.178 NA
ATOM     31  N   UNL d   1     -34.664  20.003  24.993  0.00  0.00    -0.266 N 
ATOM     32  H   UNL d   1     -35.629  20.007  24.903  0.00  0.00     0.190 HD
ATOM     33  C   UNL d   1     -33.810  20.860  24.394  0.00  0.00     0.133 A 
ATOM     34 CL   UNL d   1     -34.240  22.161  23.328  0.00  0.00    -0.062 Cl
ENDBRANCH   1  27
TORSDOF 5
ENDMDL
