MODEL 1
REMARK VINA RESULT:      -9.9      0.000      0.000
REMARK  7 active torsions:
REMARK  status: ('A' for Active; 'I' for Inactive)
REMARK    1  A    between atoms: C_2  and  C_3 
REMARK    2  A    between atoms: C_2  and  C_32 
REMARK    3  A    between atoms: N_5  and  C_6 
REMARK    4  A    between atoms: C_19  and  N_20 
REMARK    5  A    between atoms: C_22  and  C_23 
REMARK    6  A    between atoms: C_23  and  O_24 
REMARK    7  A    between atoms: N_25  and  C_26 
ROOT
ATOM      1  C   UNL d   1     -25.824  23.949  23.654  0.00  0.00     0.005 A 
ATOM      2  C   UNL d   1     -24.524  24.133  23.308  0.00  0.00     0.113 A 
ATOM      3  N   UNL d   1     -23.982  23.562  22.194  0.00  0.00    -0.288 N 
ATOM      4  C   UNL d   1     -24.698  22.779  21.363  0.00  0.00     0.263 A 
ATOM      5  O   UNL d   1     -24.173  22.289  20.379  0.00  0.00    -0.267 OA
ATOM      6  C   UNL d   1     -26.111  22.519  21.651  0.00  0.00     0.047 A 
ATOM      7  C   UNL d   1     -26.896  21.715  20.821  0.00  0.00     0.062 A 
ATOM      8  C   UNL d   1     -28.210  21.502  21.129  0.00  0.00     0.146 A 
ATOM      9  F   UNL d   1     -28.967  20.723  20.326  0.00  0.00    -0.204 F 
ATOM     10  C   UNL d   1     -28.780  22.081  22.267  0.00  0.00     0.103 A 
ATOM     11  C   UNL d   1     -28.021  22.881  23.104  0.00  0.00     0.048 A 
ATOM     12  C   UNL d   1     -26.682  23.108  22.803  0.00  0.00    -0.006 A 
ENDROOT
BRANCH  10  13
ATOM     13  N   UNL d   1     -30.126  21.849  22.562  0.00  0.00    -0.178 N 
ATOM     14  C   UNL d   1     -31.169  22.017  21.722  0.00  0.00     0.351 A 
ATOM     15  N   UNL d   1     -32.287  21.680  22.396  0.00  0.00    -0.283 N 
ATOM     16  O   UNL d   1     -31.110  22.398  20.567  0.00  0.00    -0.244 OA
ATOM     17  C   UNL d   1     -31.930  21.311  23.670  0.00  0.00     0.154 A 
ATOM     18  N   UNL d   1     -30.644  21.406  23.787  0.00  0.00    -0.147 NA
BRANCH  15  19
ATOM     19  C   UNL d   1     -33.651  21.711  21.862  0.00  0.00     0.131 C 
ATOM     20  C   UNL d   1     -34.008  20.337  21.293  0.00  0.00     0.027 C 
ENDBRANCH  15  19
BRANCH  17  21
ATOM     21  C   UNL d   1     -32.880  20.868  24.753  0.00  0.00     0.244 C 
BRANCH  21  22
ATOM     22  O   UNL d   1     -32.232  20.967  26.023  0.00  0.00    -0.393 OA
ATOM     23  H   UNL d   1     -31.341  21.341  25.982  0.00  0.00     0.209 HD
ENDBRANCH  21  22
ENDBRANCH  17  21
ENDBRANCH  10  13
BRANCH   1  24
ATOM     24  C   UNL d   1     -26.371  24.585  24.869  0.00  0.00     0.051 C 
ATOM     25  C   UNL d   1     -26.283  25.901  25.026  0.00  0.00     0.029 C 
BRANCH  24  26
ATOM     26  C   UNL d   1     -27.028  23.742  25.930  0.00  0.00     0.417 C 
ATOM     27  F   UNL d   1     -26.203  22.655  26.239  0.00  0.00    -0.166 F 
ATOM     28  F   UNL d   1     -27.232  24.513  27.079  0.00  0.00    -0.166 F 
ATOM     29  F   UNL d   1     -28.259  23.273  25.458  0.00  0.00    -0.166 F 
ENDBRANCH  24  26
ENDBRANCH   1  24
BRANCH   3  30
ATOM     30  C   UNL d   1     -22.634  23.798  21.903  0.00  0.00     0.048 A 
ATOM     31  C   UNL d   1     -21.646  23.345  22.766  0.00  0.00    -0.035 A 
ATOM     32  C   UNL d   1     -20.316  23.581  22.476  0.00  0.00     0.009 A 
ATOM     33  C   UNL d   1     -22.023  22.597  24.019  0.00  0.00     0.050 C 
ATOM     34  C   UNL d   1     -19.969  24.266  21.327  0.00  0.00     0.001 A 
ATOM     35  C   UNL d   1     -20.951  24.719  20.465  0.00  0.00     0.002 A 
ATOM     36  C   UNL d   1     -22.282  24.483  20.746  0.00  0.00     0.030 A 
ENDBRANCH   3  30
TORSDOF 7
ENDMDL
