MODEL 1
REMARK VINA RESULT:     -10.0      0.000      0.000
REMARK  4 active torsions:
REMARK  status: ('A' for Active; 'I' for Inactive)
REMARK    1  A    between atoms: C_2  and  C_4 
REMARK    2  A    between atoms: C_4  and  C_7 
REMARK       I    between atoms: C_7  and  N_9 
REMARK    3  A    between atoms: N_9  and  C_10 
REMARK    4  A    between atoms: C_13  and  C_14 
ROOT
ATOM      1  C   UNL d   1     -21.261  23.845  21.971  0.00  0.00     0.253 C 
ATOM      2  C   UNL d   1     -21.537  24.541  20.704  0.00  0.00     0.081 C 
ATOM      3  N   UNL d   1     -21.749  25.078  19.725  0.00  0.00    -0.196 NA
ENDROOT
BRANCH   1   4
ATOM      4  C   UNL d   1     -20.451  24.743  22.872  0.00  0.00     0.149 C 
ATOM      5  C   UNL d   1     -21.072  25.987  23.450  0.00  0.00     0.093 C 
ATOM      6  O   UNL d   1     -19.305  24.463  23.129  0.00  0.00    -0.296 OA
ENDBRANCH   1   4
BRANCH   1   7
ATOM      7  C   UNL d   1     -22.563  23.498  22.647  0.00  0.00     0.247 C 
ATOM      8  O   UNL d   1     -22.559  22.857  23.677  0.00  0.00    -0.271 OA
ATOM      9  N   UNL d   1     -23.731  23.895  22.105  0.00  0.00    -0.324 N 
ATOM     10  H   UNL d   1     -23.732  24.474  21.327  0.00  0.00     0.169 HD
BRANCH   9  11
ATOM     11  C   UNL d   1     -24.941  23.471  22.663  0.00  0.00     0.056 A 
ATOM     12  C   UNL d   1     -25.524  22.282  22.237  0.00  0.00     0.061 A 
ATOM     13  C   UNL d   1     -26.717  21.862  22.786  0.00  0.00     0.038 A 
ATOM     14 CL   UNL d   1     -24.748  21.326  21.014  0.00  0.00    -0.082 Cl
ATOM     15  C   UNL d   1     -27.339  22.631  23.769  0.00  0.00    -0.021 A 
ATOM     16  C   UNL d   1     -26.753  23.822  24.194  0.00  0.00     0.014 A 
ATOM     17  C   UNL d   1     -25.557  24.235  23.646  0.00  0.00     0.032 A 
BRANCH  15  18
ATOM     18  C   UNL d   1     -28.622  22.182  24.361  0.00  0.00     0.018 A 
ATOM     19  C   UNL d   1     -28.671  21.763  25.690  0.00  0.00     0.046 A 
ATOM     20  C   UNL d   1     -29.870  21.346  26.237  0.00  0.00     0.025 A 
ATOM     21 CL   UNL d   1     -27.229  21.767  26.657  0.00  0.00    -0.083 Cl
ATOM     22  C   UNL d   1     -31.020  21.344  25.469  0.00  0.00     0.003 A 
ATOM     23  C   UNL d   1     -30.978  21.758  24.150  0.00  0.00     0.025 A 
ATOM     24  C   UNL d   1     -29.787  22.183  23.594  0.00  0.00     0.046 A 
ATOM     25 CL   UNL d   1     -29.737  22.708  21.940  0.00  0.00    -0.083 Cl
ENDBRANCH  15  18
ENDBRANCH   9  11
ENDBRANCH   1   7
TORSDOF 4
ENDMDL
