MODEL 1
REMARK VINA RESULT:     -11.3      0.000      0.000
REMARK  9 active torsions:
REMARK  status: ('A' for Active; 'I' for Inactive)
REMARK    1  A    between atoms: C_3  and  N_4 
REMARK    2  A    between atoms: N_4  and  C_5 
REMARK    3  A    between atoms: C_13  and  O_14 
REMARK    4  A    between atoms: C_19  and  O_20 
REMARK    5  A    between atoms: O_20  and  C_21 
REMARK       I    between atoms: N_24  and  C_25 
REMARK    6  A    between atoms: C_25  and  C_27 
REMARK    7  A    between atoms: C_27  and  C_28 
REMARK    8  A    between atoms: C_28  and  C_29 
REMARK    9  A    between atoms: C_28  and  C_33 
ROOT
ATOM      1  C   UNL d   1     -24.593  25.880  24.190  0.00  0.00     0.053 C 
ATOM      2  C   UNL d   1     -24.499  24.687  23.274  0.00  0.00    -0.002 A 
ATOM      3  C   UNL d   1     -23.548  24.658  22.263  0.00  0.00     0.044 A 
ATOM      4  C   UNL d   1     -23.469  23.559  21.417  0.00  0.00     0.054 A 
ATOM      5  C   UNL d   1     -24.328  22.490  21.589  0.00  0.00     0.038 A 
ATOM      6 CL   UNL d   1     -24.224  21.115  20.535  0.00  0.00    -0.084 Cl
ATOM      7  C   UNL d   1     -25.277  22.518  22.595  0.00  0.00     0.061 A 
ATOM      8  C   UNL d   1     -25.364  23.616  23.439  0.00  0.00     0.079 A 
ENDROOT
BRANCH   8   9
ATOM      9  O   UNL d   1     -26.296  23.641  24.428  0.00  0.00    -0.345 OA
BRANCH   9  10
ATOM     10  C   UNL d   1     -27.345  22.674  24.356  0.00  0.00     0.132 C 
ATOM     11  C   UNL d   1     -27.952  22.474  25.747  0.00  0.00     0.052 C 
ATOM     12  C   UNL d   1     -29.052  21.411  25.671  0.00  0.00     0.128 C 
ATOM     13  N   UNL d   1     -30.023  21.808  24.641  0.00  0.00    -0.352 N 
ATOM     14  C   UNL d   1     -29.534  22.113  23.290  0.00  0.00     0.128 C 
ATOM     15  C   UNL d   1     -31.337  21.891  24.932  0.00  0.00     0.220 C 
ATOM     16  C   UNL d   1     -28.427  23.167  23.392  0.00  0.00     0.052 C 
ATOM     17  O   UNL d   1     -31.727  21.638  26.052  0.00  0.00    -0.273 OA
BRANCH  15  18
ATOM     18  C   UNL d   1     -32.319  22.299  23.865  0.00  0.00     0.125 C 
BRANCH  18  19
ATOM     19  C   UNL d   1     -32.473  21.162  22.852  0.00  0.00     0.209 C 
BRANCH  19  20
ATOM     20  C   UNL d   1     -33.452  20.122  23.399  0.00  0.00     0.400 C 
ATOM     21  F   UNL d   1     -32.807  19.331  24.356  0.00  0.00    -0.170 F 
ATOM     22  F   UNL d   1     -34.541  20.772  23.991  0.00  0.00    -0.170 F 
ATOM     23  F   UNL d   1     -33.905  19.311  22.353  0.00  0.00    -0.170 F 
ENDBRANCH  19  20
BRANCH  19  24
ATOM     24  C   UNL d   1     -33.008  21.724  21.534  0.00  0.00     0.400 C 
ATOM     25  F   UNL d   1     -33.538  20.683  20.763  0.00  0.00    -0.170 F 
ATOM     26  F   UNL d   1     -34.010  22.663  21.800  0.00  0.00    -0.170 F 
ATOM     27  F   UNL d   1     -31.966  22.340  20.832  0.00  0.00    -0.170 F 
ENDBRANCH  19  24
ENDBRANCH  18  19
ENDBRANCH  15  18
ENDBRANCH   9  10
ENDBRANCH   8   9
BRANCH   3  28
ATOM     28  N   UNL d   1     -22.675  25.735  22.094  0.00  0.00    -0.335 N 
ATOM     29  H   UNL d   1     -22.855  26.404  21.414  0.00  0.00     0.168 HD
BRANCH  28  30
ATOM     30  C   UNL d   1     -21.551  25.850  22.897  0.00  0.00     0.172 A 
ATOM     31  S   UNL d   1     -20.071  25.038  22.631  0.00  0.00    -0.054 SA
ATOM     32  C   UNL d   1     -19.385  25.794  24.065  0.00  0.00     0.013 A 
ATOM     33  C   UNL d   1     -20.317  26.587  24.621  0.00  0.00     0.079 A 
ATOM     34  C   UNL d   1     -17.985  25.594  24.593  0.00  0.00     0.048 C 
ATOM     35  N   UNL d   1     -21.469  26.586  23.958  0.00  0.00    -0.225 NA
ATOM     36  C   UNL d   1     -20.060  27.396  25.882  0.00  0.00     0.171 C 
ATOM     37  C   UNL d   1     -18.829  26.826  26.590  0.00  0.00     0.038 C 
ATOM     38  C   UNL d   1     -17.673  26.714  25.591  0.00  0.00     0.008 C 
BRANCH  36  39
ATOM     39  O   UNL d   1     -21.194  27.308  26.748  0.00  0.00    -0.389 OA
ATOM     40  H   UNL d   1     -21.860  26.668  26.459  0.00  0.00     0.210 HD
ENDBRANCH  36  39
ENDBRANCH  28  30
ENDBRANCH   3  28
TORSDOF 9
ENDMDL
