MODEL 1
REMARK VINA RESULT:      -8.2      0.000      0.000
REMARK  5 active torsions:
REMARK  status: ('A' for Active; 'I' for Inactive)
REMARK    1  A    between atoms: C_6  and  N_7 
REMARK    2  A    between atoms: N_7  and  C_8 
REMARK    3  A    between atoms: C_11  and  C_12 
REMARK    4  A    between atoms: C_18  and  C_19 
REMARK    5  A    between atoms: C_19  and  O_20 
ROOT
ATOM      1  N   UNL d   1     -29.927  22.716  23.095  0.00  0.00    -0.341 N 
ATOM      2  H   UNL d   1     -30.413  23.475  22.739  0.00  0.00     0.167 HD
ENDROOT
BRANCH   1   3
ATOM      3  C   UNL d   1     -30.550  21.846  23.986  0.00  0.00     0.132 A 
ATOM      4  N   UNL d   1     -29.956  21.195  25.021  0.00  0.00    -0.262 N 
ATOM      5  N   UNL d   1     -30.936  20.426  25.662  0.00  0.00    -0.178 NA
ATOM      6  H   UNL d   1     -29.021  21.253  25.271  0.00  0.00     0.191 HD
ATOM      7  C   UNL d   1     -32.073  20.603  25.040  0.00  0.00     0.063 A 
ATOM      8  C   UNL d   1     -33.386  19.960  25.403  0.00  0.00     0.073 C 
ATOM      9  C   UNL d   1     -31.866  21.495  23.983  0.00  0.00     0.036 A 
BRANCH   9  10
ATOM     10  C   UNL d   1     -32.911  21.980  23.013  0.00  0.00     0.208 C 
BRANCH  10  11
ATOM     11  O   UNL d   1     -32.375  21.964  21.689  0.00  0.00    -0.396 OA
ATOM     12  H   UNL d   1     -32.987  22.288  21.012  0.00  0.00     0.209 HD
ENDBRANCH  10  11
ENDBRANCH   9  10
ENDBRANCH   1   3
BRANCH   1  13
ATOM     13  C   UNL d   1     -28.601  22.494  22.714  0.00  0.00     0.033 A 
ATOM     14  C   UNL d   1     -28.318  21.746  21.578  0.00  0.00     0.030 A 
ATOM     15  C   UNL d   1     -27.006  21.530  21.204  0.00  0.00     0.018 A 
ATOM     16  C   UNL d   1     -25.975  22.062  21.956  0.00  0.00     0.048 A 
ATOM     17  C   UNL d   1     -26.253  22.802  23.091  0.00  0.00     0.018 A 
ATOM     18  C   UNL d   1     -27.562  23.022  23.471  0.00  0.00     0.030 A 
BRANCH  16  19
ATOM     19  C   UNL d   1     -24.545  21.830  21.542  0.00  0.00     0.417 C 
ATOM     20  F   UNL d   1     -23.694  22.146  22.607  0.00  0.00    -0.166 F 
ATOM     21  F   UNL d   1     -24.373  20.487  21.191  0.00  0.00    -0.166 F 
ATOM     22  F   UNL d   1     -24.239  22.643  20.445  0.00  0.00    -0.166 F 
ENDBRANCH  16  19
ENDBRANCH   1  13
TORSDOF 5
ENDMDL
