MODEL 1
REMARK VINA RESULT:     -11.3      0.000      0.000
REMARK  7 active torsions:
REMARK  status: ('A' for Active; 'I' for Inactive)
REMARK    1  A    between atoms: O_2  and  C_3 
REMARK    2  A    between atoms: C_7  and  C_8 
REMARK    3  A    between atoms: C_11  and  N_12 
REMARK    4  A    between atoms: N_12  and  C_13 
REMARK    5  A    between atoms: C_16  and  C_17 
REMARK    6  A    between atoms: C_21  and  C_22 
REMARK    7  A    between atoms: C_22  and  O_24 
ROOT
ATOM      1  C   UNL d   1     -24.588  23.437  22.526  0.00  0.00    -0.023 A 
ATOM      2  C   UNL d   1     -25.280  22.295  22.123  0.00  0.00     0.014 A 
ATOM      3  C   UNL d   1     -26.482  21.973  22.716  0.00  0.00     0.033 A 
ATOM      4  C   UNL d   1     -27.006  22.785  23.715  0.00  0.00     0.072 A 
ATOM      5  C   UNL d   1     -26.318  23.926  24.118  0.00  0.00     0.143 A 
ATOM      6  F   UNL d   1     -26.828  24.714  25.089  0.00  0.00    -0.204 F 
ATOM      7  C   UNL d   1     -25.111  24.248  23.531  0.00  0.00     0.057 A 
ENDROOT
BRANCH   4   8
ATOM      8  N   UNL d   1     -28.225  22.456  24.314  0.00  0.00    -0.338 N 
ATOM      9  H   UNL d   1     -28.274  22.324  25.275  0.00  0.00     0.167 HD
BRANCH   8  10
ATOM     10  C   UNL d   1     -29.362  22.317  23.538  0.00  0.00     0.144 A 
ATOM     11  C   UNL d   1     -30.546  21.828  24.115  0.00  0.00     0.084 A 
ATOM     12  C   UNL d   1     -31.685  21.696  23.310  0.00  0.00     0.031 A 
ATOM     13  C   UNL d   1     -31.592  22.056  21.978  0.00  0.00    -0.035 A 
ATOM     14  C   UNL d   1     -30.390  22.532  21.482  0.00  0.00     0.126 A 
ATOM     15  N   UNL d   1     -29.331  22.652  22.258  0.00  0.00    -0.242 NA
BRANCH  11  16
ATOM     16  C   UNL d   1     -30.590  21.459  25.541  0.00  0.00     0.180 C 
ATOM     17  O   UNL d   1     -31.348  22.037  26.294  0.00  0.00    -0.646 OA
BRANCH  16  18
ATOM     18  O   UNL d   1     -29.790  20.482  26.009  0.00  0.00    -0.773 OA
ATOM     19  H   UNL d   1     -29.907  20.222  26.933  0.00  0.00     0.167 HD
ENDBRANCH  16  18
ENDBRANCH  11  16
BRANCH  13  20
ATOM     20  C   UNL d   1     -32.790  21.932  21.072  0.00  0.00     0.020 A 
ATOM     21  C   UNL d   1     -33.752  20.771  21.331  0.00  0.00     0.010 A 
ATOM     22  C   UNL d   1     -34.167  22.202  21.683  0.00  0.00     0.010 A 
ENDBRANCH  13  20
ENDBRANCH   8  10
ENDBRANCH   4   8
BRANCH   1  23
ATOM     23  C   UNL d   1     -23.294  23.784  21.888  0.00  0.00    -0.023 A 
ATOM     24  C   UNL d   1     -23.243  24.078  20.526  0.00  0.00     0.012 A 
ATOM     25  C   UNL d   1     -22.038  24.401  19.936  0.00  0.00     0.004 A 
ATOM     26  C   UNL d   1     -20.882  24.440  20.692  0.00  0.00     0.037 A 
ATOM     27  C   UNL d   1     -20.923  24.142  22.048  0.00  0.00     0.069 A 
ATOM     28  C   UNL d   1     -22.128  23.818  22.648  0.00  0.00     0.049 A 
BRANCH  27  29
ATOM     29  O   UNL d   1     -19.783  24.177  22.787  0.00  0.00    -0.356 OA
ATOM     30  C   UNL d   1     -19.851  24.829  24.056  0.00  0.00     0.210 C 
ENDBRANCH  27  29
ENDBRANCH   1  23
TORSDOF 7
ENDMDL
