MODEL 1
REMARK VINA RESULT:     -11.8      0.000      0.000
REMARK  8 active torsions:
REMARK  status: ('A' for Active; 'I' for Inactive)
REMARK    1  A    between atoms: C_2  and  O_3 
REMARK    2  A    between atoms: C_2  and  C_4 
REMARK    3  A    between atoms: C_6  and  C_7 
REMARK    4  A    between atoms: C_12  and  N_13 
REMARK    5  A    between atoms: N_13  and  C_14 
REMARK    6  A    between atoms: C_18  and  C_19 
REMARK    7  A    between atoms: C_23  and  O_24 
REMARK    8  A    between atoms: O_24  and  C_25 
ROOT
ATOM      1  C   UNL d   1     -26.981  22.863  23.774  0.00  0.00     0.112 A 
ATOM      2  C   UNL d   1     -26.431  22.019  22.815  0.00  0.00     0.146 A 
ATOM      3  F   UNL d   1     -27.081  20.889  22.457  0.00  0.00    -0.204 F 
ATOM      4  C   UNL d   1     -25.225  22.337  22.222  0.00  0.00     0.057 A 
ATOM      5  C   UNL d   1     -24.552  23.500  22.596  0.00  0.00    -0.020 A 
ATOM      6  C   UNL d   1     -25.101  24.341  23.562  0.00  0.00     0.057 A 
ATOM      7  C   UNL d   1     -26.310  24.023  24.147  0.00  0.00     0.146 A 
ATOM      8  F   UNL d   1     -26.842  24.839  25.083  0.00  0.00    -0.204 F 
ENDROOT
BRANCH   1   9
ATOM      9  N   UNL d   1     -28.207  22.542  24.368  0.00  0.00    -0.335 N 
ATOM     10  H   UNL d   1     -28.266  22.440  25.331  0.00  0.00     0.168 HD
BRANCH   9  11
ATOM     11  C   UNL d   1     -29.331  22.369  23.583  0.00  0.00     0.144 A 
ATOM     12  C   UNL d   1     -30.497  21.818  24.144  0.00  0.00     0.084 A 
ATOM     13  C   UNL d   1     -31.623  21.653  23.328  0.00  0.00     0.031 A 
ATOM     14  C   UNL d   1     -31.538  22.041  22.003  0.00  0.00    -0.035 A 
ATOM     15  C   UNL d   1     -30.354  22.576  21.524  0.00  0.00     0.126 A 
ATOM     16  N   UNL d   1     -29.303  22.718  22.306  0.00  0.00    -0.242 NA
BRANCH  12  17
ATOM     17  C   UNL d   1     -30.533  21.422  25.561  0.00  0.00     0.180 C 
ATOM     18  O   UNL d   1     -31.353  21.916  26.309  0.00  0.00    -0.646 OA
BRANCH  17  19
ATOM     19  O   UNL d   1     -29.656  20.511  26.030  0.00  0.00    -0.773 OA
ATOM     20  H   UNL d   1     -29.976  19.904  26.711  0.00  0.00     0.167 HD
ENDBRANCH  17  19
ENDBRANCH  12  17
BRANCH  14  21
ATOM     21  C   UNL d   1     -32.724  21.882  21.088  0.00  0.00     0.020 A 
ATOM     22  C   UNL d   1     -33.783  20.848  21.475  0.00  0.00     0.010 A 
ATOM     23  C   UNL d   1     -34.087  22.341  21.611  0.00  0.00     0.010 A 
ENDBRANCH  14  21
ENDBRANCH   9  11
ENDBRANCH   1   9
BRANCH   5  24
ATOM     24  C   UNL d   1     -23.254  23.841  21.965  0.00  0.00    -0.023 A 
ATOM     25  C   UNL d   1     -22.087  23.844  22.725  0.00  0.00     0.049 A 
ATOM     26  C   UNL d   1     -20.877  24.158  22.128  0.00  0.00     0.070 A 
ATOM     27  C   UNL d   1     -20.831  24.479  20.778  0.00  0.00     0.037 A 
ATOM     28  C   UNL d   1     -21.990  24.482  20.025  0.00  0.00     0.004 A 
ATOM     29  C   UNL d   1     -23.199  24.164  20.610  0.00  0.00     0.012 A 
BRANCH  26  30
ATOM     30  O   UNL d   1     -19.735  24.157  22.865  0.00  0.00    -0.346 OA
BRANCH  30  31
ATOM     31  C   UNL d   1     -19.818  24.680  24.192  0.00  0.00     0.129 A 
ATOM     32  C   UNL d   1     -18.602  25.436  24.731  0.00  0.00     0.035 A 
ATOM     33  C   UNL d   1     -19.872  26.200  24.350  0.00  0.00     0.035 A 
ENDBRANCH  30  31
ENDBRANCH  26  30
ENDBRANCH   5  24
TORSDOF 8
ENDMDL
