MODEL 1
REMARK VINA RESULT:      -7.7      0.000      0.000
REMARK  7 active torsions:
REMARK  status: ('A' for Active; 'I' for Inactive)
REMARK    1  A    between atoms: O_2  and  C_3 
REMARK    2  A    between atoms: C_6  and  N_7 
REMARK       I    between atoms: N_7  and  C_8 
REMARK    3  A    between atoms: C_8  and  C_10 
REMARK    4  A    between atoms: C_14  and  N_15 
REMARK    5  A    between atoms: C_26  and  O_27 
REMARK    6  A    between atoms: O_27  and  C_28 
REMARK    7  A    between atoms: C_28  and  C_30 
ROOT
ATOM      1  C   UNL d   1     -19.779  26.969  25.577  0.00  0.00     0.068 A 
ATOM      2  C   UNL d   1     -21.150  27.209  25.432  0.00  0.00     0.064 A 
ATOM      3  C   UNL d   1     -21.891  26.447  24.558  0.00  0.00     0.146 A 
ATOM      4  F   UNL d   1     -23.216  26.674  24.422  0.00  0.00    -0.204 F 
ATOM      5  C   UNL d   1     -21.279  25.441  23.810  0.00  0.00     0.104 A 
ATOM      6  C   UNL d   1     -19.919  25.201  23.943  0.00  0.00     0.073 A 
ATOM      7  C   UNL d   1     -19.163  25.962  24.820  0.00  0.00     0.087 A 
ENDROOT
BRANCH   1   8
ATOM      8  C   UNL d   1     -18.984  27.778  26.516  0.00  0.00     0.259 C 
ATOM      9  N   UNL d   1     -18.217  27.174  27.446  0.00  0.00    -0.321 N 
ATOM     10  H   UNL d   1     -18.128  26.208  27.447  0.00  0.00     0.169 HD
ATOM     11  O   UNL d   1     -19.019  28.992  26.453  0.00  0.00    -0.267 OA
BRANCH   9  12
ATOM     12  C   UNL d   1     -17.551  27.940  28.410  0.00  0.00     0.059 A 
ATOM     13  C   UNL d   1     -18.209  28.339  29.573  0.00  0.00     0.036 A 
ATOM     14  C   UNL d   1     -17.511  29.091  30.500  0.00  0.00     0.060 A 
ATOM     15  C   UNL d   1     -16.189  29.430  30.240  0.00  0.00     0.164 A 
ATOM     16  N   UNL d   1     -15.597  29.038  29.125  0.00  0.00    -0.228 NA
ATOM     17  C   UNL d   1     -16.230  28.316  28.220  0.00  0.00     0.060 A 
ATOM     18  C   UNL d   1     -15.509  27.895  26.965  0.00  0.00     0.073 C 
BRANCH  15  19
ATOM     19  O   UNL d   1     -15.497  30.172  31.141  0.00  0.00    -0.339 OA
ATOM     20  C   UNL d   1     -14.137  29.803  31.378  0.00  0.00     0.211 C 
ENDBRANCH  15  19
ENDBRANCH   9  12
ENDBRANCH   1   8
BRANCH   7  21
ATOM     21  O   UNL d   1     -17.833  25.728  24.951  0.00  0.00    -0.345 OA
BRANCH  21  22
ATOM     22  C   UNL d   1     -17.013  25.994  23.812  0.00  0.00     0.129 C 
ATOM     23  C   UNL d   1     -16.970  27.502  23.555  0.00  0.00     0.040 C 
BRANCH  22  24
ATOM     24  C   UNL d   1     -15.594  25.482  24.074  0.00  0.00     0.015 C 
ATOM     25  C   UNL d   1     -15.120  24.661  22.873  0.00  0.00     0.007 C 
ATOM     26  C   UNL d   1     -13.702  24.148  23.134  0.00  0.00     0.000 C 
ATOM     27  C   UNL d   1     -13.700  23.269  24.387  0.00  0.00     0.000 C 
ATOM     28  C   UNL d   1     -14.175  24.090  25.588  0.00  0.00     0.000 C 
ATOM     29  C   UNL d   1     -15.594  24.602  25.326  0.00  0.00     0.007 C 
ENDBRANCH  22  24
ENDBRANCH  21  22
ENDBRANCH   7  21
BRANCH   5  30
ATOM     30  N   UNL d   1     -22.037  24.672  22.924  0.00  0.00    -0.178 N 
ATOM     31  C   UNL d   1     -21.928  24.661  21.577  0.00  0.00     0.351 A 
ATOM     32  N   UNL d   1     -22.817  23.769  21.111  0.00  0.00    -0.284 N 
ATOM     33  O   UNL d   1     -21.164  25.335  20.910  0.00  0.00    -0.244 OA
ATOM     34  C   UNL d   1     -23.513  23.247  22.183  0.00  0.00     0.131 A 
ATOM     35  C   UNL d   1     -23.030  23.367  19.716  0.00  0.00     0.135 C 
ATOM     36  N   UNL d   1     -23.050  23.764  23.270  0.00  0.00    -0.149 NA
ATOM     37  C   UNL d   1     -24.635  22.245  22.047  0.00  0.00     0.081 C 
ATOM     38  C   UNL d   1     -24.530  21.600  20.658  0.00  0.00     0.009 C 
ATOM     39  C   UNL d   1     -24.408  22.703  19.602  0.00  0.00     0.021 C 
ENDBRANCH   5  30
TORSDOF 7
ENDMDL
