MODEL 1
REMARK VINA RESULT:      -7.5      0.000      0.000
REMARK  5 active torsions:
REMARK  status: ('A' for Active; 'I' for Inactive)
REMARK    1  A    between atoms: O_2  and  C_3 
REMARK    2  A    between atoms: C_3  and  C_5 
REMARK    3  A    between atoms: C_5  and  C_8 
REMARK    4  A    between atoms: N_13  and  C_14 
REMARK    5  A    between atoms: C_17  and  C_18 
ROOT
ATOM      1  C   UNL d   1     -26.135  23.920  24.077  0.00  0.00     0.153 C 
ATOM      2  C   UNL d   1     -25.484  25.179  23.868  0.00  0.00     0.108 C 
ATOM      3  N   UNL d   1     -24.968  26.177  23.702  0.00  0.00    -0.191 NA
ENDROOT
BRANCH   1   4
ATOM      4  C   UNL d   1     -26.682  23.607  25.346  0.00  0.00     0.306 C 
ATOM      5  O   UNL d   1     -27.117  24.494  26.057  0.00  0.00    -0.258 OA
BRANCH   4   6
ATOM      6  O   UNL d   1     -26.722  22.325  25.767  0.00  0.00    -0.322 OA
ATOM      7  C   UNL d   1     -27.927  21.888  26.401  0.00  0.00     0.213 C 
ENDBRANCH   4   6
ENDBRANCH   1   4
BRANCH   1   8
ATOM      8  C   UNL d   1     -26.231  23.002  23.029  0.00  0.00     0.107 A 
ATOM      9  N   UNL d   1     -25.209  22.601  22.228  0.00  0.00    -0.274 N 
ATOM     10  C   UNL d   1     -25.420  21.716  21.265  0.00  0.00     0.239 A 
ATOM     11  C   UNL d   1     -26.859  21.257  21.191  0.00  0.00     0.184 A 
ATOM     12  O   UNL d   1     -24.550  21.316  20.521  0.00  0.00    -0.272 OA
ATOM     13  S   UNL d   1     -27.665  22.189  22.535  0.00  0.00    -0.101 SA
BRANCH   9  14
ATOM     14  C   UNL d   1     -23.924  23.123  22.424  0.00  0.00     0.043 A 
ATOM     15  C   UNL d   1     -23.404  24.049  21.530  0.00  0.00     0.031 A 
ATOM     16  C   UNL d   1     -22.139  24.566  21.729  0.00  0.00     0.018 A 
ATOM     17  C   UNL d   1     -21.389  24.162  22.819  0.00  0.00     0.048 A 
ATOM     18  C   UNL d   1     -21.903  23.238  23.711  0.00  0.00     0.018 A 
ATOM     19  C   UNL d   1     -23.168  22.718  23.517  0.00  0.00     0.031 A 
BRANCH  17  20
ATOM     20  C   UNL d   1     -20.010  24.727  23.034  0.00  0.00     0.417 C 
ATOM     21  F   UNL d   1     -20.061  26.124  22.960  0.00  0.00    -0.166 F 
ATOM     22  F   UNL d   1     -19.539  24.345  24.294  0.00  0.00    -0.166 F 
ATOM     23  F   UNL d   1     -19.146  24.241  22.046  0.00  0.00    -0.166 F 
ENDBRANCH  17  20
ENDBRANCH   9  14
ENDBRANCH   1   8
TORSDOF 5
ENDMDL
