MODEL 1
REMARK VINA RESULT:     -11.0      0.000      0.000
REMARK  6 active torsions:
REMARK  status: ('A' for Active; 'I' for Inactive)
REMARK    1  A    between atoms: C_2  and  O_3 
REMARK    2  A    between atoms: C_2  and  C_33 
REMARK    3  A    between atoms: O_3  and  C_4 
REMARK    4  A    between atoms: C_6  and  N_7 
REMARK    5  A    between atoms: C_20  and  C_21 
REMARK       I    between atoms: C_21  and  N_23 
REMARK    6  A    between atoms: N_23  and  C_24 
ROOT
ATOM      1  C   UNL d   1     -24.678  23.360  22.654  0.00  0.00     0.087 A 
ATOM      2  C   UNL d   1     -25.939  22.818  22.827  0.00  0.00     0.073 A 
ATOM      3  C   UNL d   1     -26.796  23.343  23.784  0.00  0.00     0.104 A 
ATOM      4  C   UNL d   1     -26.393  24.422  24.571  0.00  0.00     0.146 A 
ATOM      5  F   UNL d   1     -27.235  24.932  25.496  0.00  0.00    -0.204 F 
ATOM      6  C   UNL d   1     -25.138  24.966  24.411  0.00  0.00     0.064 A 
ATOM      7  C   UNL d   1     -24.269  24.442  23.448  0.00  0.00     0.068 A 
ENDROOT
BRANCH   7   8
ATOM      8  C   UNL d   1     -22.927  25.024  23.268  0.00  0.00     0.259 C 
ATOM      9  O   UNL d   1     -22.782  26.020  22.587  0.00  0.00    -0.267 OA
ATOM     10  N   UNL d   1     -21.860  24.451  23.862  0.00  0.00    -0.321 N 
ATOM     11  H   UNL d   1     -21.962  23.611  24.336  0.00  0.00     0.169 HD
BRANCH  10  12
ATOM     12  C   UNL d   1     -20.607  25.068  23.793  0.00  0.00     0.062 A 
ATOM     13  C   UNL d   1     -20.277  26.075  24.691  0.00  0.00     0.099 A 
ATOM     14  C   UNL d   1     -19.036  26.684  24.621  0.00  0.00     0.143 A 
ATOM     15 CL   UNL d   1     -21.420  26.570  25.901  0.00  0.00    -0.079 Cl
ATOM     16  C   UNL d   1     -18.124  26.291  23.657  0.00  0.00     0.086 A 
ATOM     17  F   UNL d   1     -18.714  27.664  25.494  0.00  0.00    -0.204 F 
ATOM     18  C   UNL d   1     -18.451  25.288  22.760  0.00  0.00     0.121 A 
ATOM     19  C   UNL d   1     -19.688  24.671  22.830  0.00  0.00     0.073 A 
ATOM     20  F   UNL d   1     -17.559  24.905  21.820  0.00  0.00    -0.206 F 
ENDBRANCH  10  12
ENDBRANCH   7   8
BRANCH   1  21
ATOM     21  O   UNL d   1     -23.839  22.847  21.718  0.00  0.00    -0.336 OA
BRANCH  21  22
ATOM     22  C   UNL d   1     -23.921  23.398  20.402  0.00  0.00     0.232 C 
ATOM     23  C   UNL d   1     -22.524  23.807  19.932  0.00  0.00     0.049 C 
BRANCH  22  24
ATOM     24  C   UNL d   1     -24.495  22.352  19.445  0.00  0.00     0.413 C 
ATOM     25  F   UNL d   1     -25.763  21.959  19.890  0.00  0.00    -0.168 F 
ATOM     26  F   UNL d   1     -24.600  22.900  18.162  0.00  0.00    -0.168 F 
ATOM     27  F   UNL d   1     -23.649  21.239  19.409  0.00  0.00    -0.168 F 
ENDBRANCH  22  24
ENDBRANCH  21  22
ENDBRANCH   1  21
BRANCH   3  28
ATOM     28  N   UNL d   1     -28.068  22.793  23.956  0.00  0.00    -0.178 N 
ATOM     29  C   UNL d   1     -28.476  22.027  24.991  0.00  0.00     0.351 A 
ATOM     30  N   UNL d   1     -29.771  21.733  24.786  0.00  0.00    -0.284 N 
ATOM     31  O   UNL d   1     -27.795  21.669  25.935  0.00  0.00    -0.244 OA
ATOM     32  C   UNL d   1     -30.158  22.293  23.586  0.00  0.00     0.131 A 
ATOM     33  C   UNL d   1     -30.663  20.972  25.668  0.00  0.00     0.135 C 
ATOM     34  N   UNL d   1     -29.159  22.933  23.083  0.00  0.00    -0.149 NA
ATOM     35  C   UNL d   1     -31.542  22.142  22.999  0.00  0.00     0.081 C 
ATOM     36  C   UNL d   1     -32.490  21.700  24.123  0.00  0.00     0.009 C 
ATOM     37  C   UNL d   1     -31.873  20.503  24.853  0.00  0.00     0.021 C 
ENDBRANCH   3  28
TORSDOF 6
ENDMDL
