MODEL 1
REMARK VINA RESULT:     -11.1      0.000      0.000
REMARK  7 active torsions:
REMARK  status: ('A' for Active; 'I' for Inactive)
REMARK    1  A    between atoms: C_2  and  C_3 
REMARK    2  A    between atoms: C_8  and  N_9 
REMARK       I    between atoms: N_9  and  C_10 
REMARK    3  A    between atoms: C_10  and  C_12 
REMARK    4  A    between atoms: C_16  and  N_17 
REMARK    5  A    between atoms: C_28  and  O_29 
REMARK    6  A    between atoms: O_29  and  C_30 
REMARK    7  A    between atoms: C_30  and  C_32 
ROOT
ATOM      1  C   UNL d   1     -24.275  24.442  23.427  0.00  0.00     0.068 A 
ATOM      2  C   UNL d   1     -25.137  24.966  24.398  0.00  0.00     0.064 A 
ATOM      3  C   UNL d   1     -26.389  24.420  24.571  0.00  0.00     0.146 A 
ATOM      4  F   UNL d   1     -27.223  24.930  25.504  0.00  0.00    -0.204 F 
ATOM      5  C   UNL d   1     -26.796  23.338  23.792  0.00  0.00     0.104 A 
ATOM      6  C   UNL d   1     -25.946  22.808  22.831  0.00  0.00     0.073 A 
ATOM      7  C   UNL d   1     -24.688  23.353  22.644  0.00  0.00     0.087 A 
ENDROOT
BRANCH   1   8
ATOM      8  C   UNL d   1     -22.938  25.028  23.233  0.00  0.00     0.259 C 
ATOM      9  N   UNL d   1     -21.855  24.421  23.757  0.00  0.00    -0.322 N 
ATOM     10  H   UNL d   1     -21.948  23.568  24.210  0.00  0.00     0.169 HD
ATOM     11  O   UNL d   1     -22.812  26.058  22.601  0.00  0.00    -0.267 OA
BRANCH   9  12
ATOM     12  C   UNL d   1     -20.595  25.021  23.646  0.00  0.00     0.041 A 
ATOM     13  C   UNL d   1     -20.174  25.935  24.603  0.00  0.00    -0.032 A 
ATOM     14  C   UNL d   1     -18.933  26.530  24.486  0.00  0.00     0.009 A 
ATOM     15  C   UNL d   1     -18.107  26.209  23.426  0.00  0.00     0.001 A 
ATOM     16  C   UNL d   1     -18.522  25.296  22.474  0.00  0.00     0.002 A 
ATOM     17  C   UNL d   1     -19.763  24.701  22.580  0.00  0.00     0.030 A 
BRANCH  13  18
ATOM     18  C   UNL d   1     -21.070  26.280  25.763  0.00  0.00     0.036 C 
ATOM     19  C   UNL d   1     -21.637  27.688  25.569  0.00  0.00     0.010 C 
ENDBRANCH  13  18
ENDBRANCH   9  12
ENDBRANCH   1   8
BRANCH   7  20
ATOM     20  O   UNL d   1     -23.855  22.837  21.706  0.00  0.00    -0.336 OA
BRANCH  20  21
ATOM     21  C   UNL d   1     -23.929  23.397  20.394  0.00  0.00     0.232 C 
ATOM     22  C   UNL d   1     -22.529  23.806  19.934  0.00  0.00     0.049 C 
BRANCH  21  23
ATOM     23  C   UNL d   1     -24.500  22.358  19.426  0.00  0.00     0.413 C 
ATOM     24  F   UNL d   1     -23.649  21.248  19.378  0.00  0.00    -0.168 F 
ATOM     25  F   UNL d   1     -25.766  21.956  19.865  0.00  0.00    -0.168 F 
ATOM     26  F   UNL d   1     -24.606  22.920  18.149  0.00  0.00    -0.168 F 
ENDBRANCH  21  23
ENDBRANCH  20  21
ENDBRANCH   7  20
BRANCH   5  27
ATOM     27  N   UNL d   1     -28.065  22.784  23.979  0.00  0.00    -0.178 N 
ATOM     28  C   UNL d   1     -28.461  22.021  25.021  0.00  0.00     0.351 A 
ATOM     29  N   UNL d   1     -29.755  21.721  24.828  0.00  0.00    -0.284 N 
ATOM     30  O   UNL d   1     -27.770  21.669  25.960  0.00  0.00    -0.244 OA
ATOM     31  C   UNL d   1     -30.157  22.277  23.632  0.00  0.00     0.131 A 
ATOM     32  C   UNL d   1     -30.637  20.960  25.722  0.00  0.00     0.135 C 
ATOM     33  N   UNL d   1     -29.167  22.925  23.121  0.00  0.00    -0.149 NA
ATOM     34  C   UNL d   1     -31.543  22.108  23.052  0.00  0.00     0.081 C 
ATOM     35  C   UNL d   1     -32.480  21.664  24.184  0.00  0.00     0.009 C 
ATOM     36  C   UNL d   1     -31.850  20.476  24.918  0.00  0.00     0.021 C 
ENDBRANCH   5  27
TORSDOF 7
ENDMDL
