MODEL 1
REMARK VINA RESULT:      -9.9      0.000      0.000
REMARK  8 active torsions:
REMARK  status: ('A' for Active; 'I' for Inactive)
REMARK    1  A    between atoms: O_2  and  C_3 
REMARK    2  A    between atoms: C_3  and  O_4 
REMARK    3  A    between atoms: O_4  and  C_5 
REMARK    4  A    between atoms: C_11  and  C_12 
REMARK    5  A    between atoms: C_12  and  C_13 
REMARK    6  A    between atoms: C_13  and  C_14 
REMARK    7  A    between atoms: CA_15  and  C_16 
REMARK    8  A    between atoms: C_16  and  OXT_18 
ROOT
ATOM      1  C   UNL d   1     -26.209  23.982  23.787  0.00  0.00     0.043 C 
ENDROOT
BRANCH   1   2
ATOM      2  C   UNL d   1     -27.352  23.172  24.342  0.00  0.00    -0.057 A 
ATOM      3  C   UNL d   1     -27.242  22.610  25.613  0.00  0.00     0.008 A 
ATOM      4  C   UNL d   1     -28.256  21.874  26.143  0.00  0.00     0.013 A 
ATOM      5  C   UNL d   1     -29.433  21.674  25.402  0.00  0.00    -0.026 A 
ATOM      6  C   UNL d   1     -30.501  20.920  25.918  0.00  0.00     0.015 A 
ATOM      7  C   UNL d   1     -29.547  22.250  24.112  0.00  0.00    -0.023 A 
ATOM      8  C   UNL d   1     -31.633  20.760  25.181  0.00  0.00     0.038 A 
ATOM      9  C   UNL d   1     -31.746  21.322  23.905  0.00  0.00     0.072 A 
ATOM     10  C   UNL d   1     -30.724  22.057  23.371  0.00  0.00     0.049 A 
ATOM     11  C   UNL d   1     -28.476  23.000  23.595  0.00  0.00     0.019 A 
BRANCH   9  12
ATOM     12  O   UNL d   1     -32.884  21.136  23.189  0.00  0.00    -0.326 OA
BRANCH  12  13
ATOM     13  C   UNL d   1     -33.058  21.944  22.023  0.00  0.00     0.344 C 
BRANCH  13  14
ATOM     14  O   UNL d   1     -33.456  21.120  20.926  0.00  0.00    -0.371 OA
ATOM     15  C   UNL d   1     -34.012  19.862  21.316  0.00  0.00     0.204 C 
ENDBRANCH  13  14
ENDBRANCH  12  13
ENDBRANCH   9  12
ENDBRANCH   1   2
BRANCH   1  16
ATOM     16  C   UNL d   1     -24.991  23.078  23.590  0.00  0.00     0.051 C 
BRANCH  16  17
ATOM     17  C   UNL d   1     -24.165  23.590  22.439  0.00  0.00     0.044 A 
ATOM     18  C   UNL d   1     -23.301  24.766  22.598  0.00  0.00     0.258 A 
ATOM     19  N   UNL d   1     -22.573  25.187  21.542  0.00  0.00    -0.275 N 
ATOM     20  O   UNL d   1     -23.238  25.349  23.664  0.00  0.00    -0.267 OA
ATOM     21  C   UNL d   1     -22.649  24.544  20.364  0.00  0.00     0.327 A 
ATOM     22  H   UNL d   1     -21.995  25.960  21.633  0.00  0.00     0.173 HD
ATOM     23  N   UNL d   1     -23.436  23.469  20.194  0.00  0.00    -0.302 N 
ATOM     24  O   UNL d   1     -21.988  24.946  19.426  0.00  0.00    -0.247 OA
ATOM     25  CA  UNL d   1     -24.205  22.977  21.227  0.00  0.00     0.122 A 
ATOM     26  H   UNL d   1     -23.466  23.031  19.328  0.00  0.00     0.171 HD
BRANCH  25  27
ATOM     27  C   UNL d   1     -25.066  21.789  21.018  0.00  0.00     0.194 C 
ATOM     28  O   UNL d   1     -26.144  21.909  20.471  0.00  0.00    -0.645 OA
BRANCH  27  29
ATOM     29  OXT UNL d   1     -24.655  20.575  21.435  0.00  0.00    -0.772 OA
ATOM     30  HXT UNL d   1     -24.339  19.962  20.758  0.00  0.00     0.167 HD
ENDBRANCH  27  29
ENDBRANCH  25  27
ENDBRANCH  16  17
ENDBRANCH   1  16
TORSDOF 8
ENDMDL
