MODEL 1
REMARK VINA RESULT:     -11.3      0.000      0.000
REMARK  6 active torsions:
REMARK  status: ('A' for Active; 'I' for Inactive)
REMARK    1  A    between atoms: C_2  and  O_3 
REMARK    2  A    between atoms: C_2  and  C_4 
REMARK    3  A    between atoms: C_6  and  C_7 
REMARK    4  A    between atoms: C_12  and  N_13 
REMARK    5  A    between atoms: N_13  and  C_14 
REMARK    6  A    between atoms: C_17  and  C_18 
ROOT
ATOM      1  N   UNL d   1     -28.065  22.508  24.231  0.00  0.00    -0.354 N 
ATOM      2  H   UNL d   1     -28.104  22.395  25.194  0.00  0.00     0.166 HD
ENDROOT
BRANCH   1   3
ATOM      3  C   UNL d   1     -29.215  22.358  23.467  0.00  0.00     0.049 A 
ATOM      4  C   UNL d   1     -30.400  21.891  24.060  0.00  0.00     0.064 A 
ATOM      5  C   UNL d   1     -31.550  21.744  23.279  0.00  0.00     0.028 A 
ATOM      6  C   UNL d   1     -31.515  22.058  21.938  0.00  0.00    -0.053 A 
ATOM      7  C   UNL d   1     -30.344  22.520  21.357  0.00  0.00     0.010 A 
ATOM      8  C   UNL d   1     -29.201  22.675  22.114  0.00  0.00     0.031 A 
BRANCH   4   9
ATOM      9  C   UNL d   1     -30.429  21.556  25.494  0.00  0.00     0.178 C 
ATOM     10  O   UNL d   1     -31.359  21.923  26.185  0.00  0.00    -0.646 OA
BRANCH   9  11
ATOM     11  O   UNL d   1     -29.424  20.842  26.039  0.00  0.00    -0.773 OA
ATOM     12  H   UNL d   1     -28.697  20.589  25.455  0.00  0.00     0.167 HD
ENDBRANCH   9  11
ENDBRANCH   4   9
BRANCH   6  13
ATOM     13  C   UNL d   1     -32.756  21.900  21.099  0.00  0.00     0.018 A 
ATOM     14  C   UNL d   1     -33.751  20.811  21.506  0.00  0.00     0.010 A 
ATOM     15  C   UNL d   1     -34.094  22.285  21.734  0.00  0.00     0.010 A 
ENDBRANCH   6  13
ENDBRANCH   1   3
BRANCH   1  16
ATOM     16  C   UNL d   1     -26.853  22.823  23.613  0.00  0.00     0.050 A 
ATOM     17  C   UNL d   1     -26.175  23.989  23.947  0.00  0.00     0.146 A 
ATOM     18  N   UNL d   1     -25.032  24.293  23.368  0.00  0.00    -0.258 NA
ATOM     19  C   UNL d   1     -24.483  23.505  22.451  0.00  0.00     0.068 A 
ATOM     20  C   UNL d   1     -25.110  22.322  22.062  0.00  0.00     0.035 A 
ATOM     21  C   UNL d   1     -26.308  21.969  22.653  0.00  0.00     0.033 A 
BRANCH  19  22
ATOM     22  C   UNL d   1     -23.194  23.892  21.829  0.00  0.00     0.014 A 
ATOM     23  C   UNL d   1     -22.000  23.723  22.529  0.00  0.00     0.046 A 
ATOM     24  C   UNL d   1     -20.801  24.085  21.944  0.00  0.00     0.025 A 
ATOM     25 CL   UNL d   1     -22.019  23.057  24.134  0.00  0.00    -0.083 Cl
ATOM     26  C   UNL d   1     -20.786  24.616  20.667  0.00  0.00     0.002 A 
ATOM     27  C   UNL d   1     -21.968  24.780  19.966  0.00  0.00     0.001 A 
ATOM     28  C   UNL d   1     -23.171  24.427  20.543  0.00  0.00     0.015 A 
ENDBRANCH  19  22
ENDBRANCH   1  16
TORSDOF 6
ENDMDL
