MODEL 1
REMARK VINA RESULT:     -10.7      0.000      0.000
REMARK  6 active torsions:
REMARK  status: ('A' for Active; 'I' for Inactive)
REMARK    1  A    between atoms: C_8  and  N_9 
REMARK       I    between atoms: N_9  and  C_10 
REMARK    2  A    between atoms: C_10  and  C_12 
REMARK    3  A    between atoms: C_16  and  N_17 
REMARK    4  A    between atoms: C_28  and  O_29 
REMARK    5  A    between atoms: O_29  and  C_30 
REMARK    6  A    between atoms: C_30  and  C_32 
ROOT
ATOM      1  C   UNL d   1     -24.178  24.652  23.619  0.00  0.00     0.068 A 
ATOM      2  C   UNL d   1     -25.085  25.168  24.551  0.00  0.00     0.064 A 
ATOM      3  C   UNL d   1     -26.331  24.598  24.684  0.00  0.00     0.146 A 
ATOM      4  F   UNL d   1     -27.208  25.100  25.582  0.00  0.00    -0.204 F 
ATOM      5  C   UNL d   1     -26.688  23.501  23.901  0.00  0.00     0.104 A 
ATOM      6  C   UNL d   1     -25.793  22.980  22.977  0.00  0.00     0.073 A 
ATOM      7  C   UNL d   1     -24.539  23.549  22.831  0.00  0.00     0.087 A 
ENDROOT
BRANCH   1   8
ATOM      8  C   UNL d   1     -22.845  25.263  23.468  0.00  0.00     0.259 C 
ATOM      9  N   UNL d   1     -21.809  24.807  24.199  0.00  0.00    -0.321 N 
ATOM     10  H   UNL d   1     -21.956  24.136  24.883  0.00  0.00     0.169 HD
ATOM     11  O   UNL d   1     -22.681  26.176  22.682  0.00  0.00    -0.267 OA
BRANCH   9  12
ATOM     12  C   UNL d   1     -20.521  25.303  23.971  0.00  0.00     0.065 A 
ATOM     13  C   UNL d   1     -20.035  26.375  24.714  0.00  0.00    -0.032 A 
ATOM     14  C   UNL d   1     -20.882  27.025  25.777  0.00  0.00     0.050 C 
ATOM     15  C   UNL d   1     -18.751  26.826  24.454  0.00  0.00     0.028 A 
ATOM     16  C   UNL d   1     -18.003  26.207  23.472  0.00  0.00     0.117 A 
ATOM     17  N   UNL d   1     -18.494  25.195  22.782  0.00  0.00    -0.264 NA
ATOM     18  C   UNL d   1     -19.710  24.735  22.996  0.00  0.00     0.057 A 
ATOM     19  C   UNL d   1     -20.224  23.576  22.180  0.00  0.00     0.073 C 
ENDBRANCH   9  12
ENDBRANCH   1   8
BRANCH   7  20
ATOM     20  O   UNL d   1     -23.663  23.040  21.929  0.00  0.00    -0.336 OA
BRANCH  20  21
ATOM     21  C   UNL d   1     -23.945  23.273  20.547  0.00  0.00     0.232 C 
ATOM     22  C   UNL d   1     -22.658  23.680  19.825  0.00  0.00     0.049 C 
BRANCH  21  23
ATOM     23  C   UNL d   1     -24.500  21.994  19.918  0.00  0.00     0.413 C 
ATOM     24  F   UNL d   1     -24.217  20.904  20.749  0.00  0.00    -0.168 F 
ATOM     25  F   UNL d   1     -25.885  22.114  19.762  0.00  0.00    -0.168 F 
ATOM     26  F   UNL d   1     -23.905  21.793  18.667  0.00  0.00    -0.168 F 
ENDBRANCH  21  23
ENDBRANCH  20  21
ENDBRANCH   7  20
BRANCH   5  27
ATOM     27  N   UNL d   1     -27.953  22.926  24.046  0.00  0.00    -0.178 N 
ATOM     28  C   UNL d   1     -28.367  22.149  25.072  0.00  0.00     0.351 A 
ATOM     29  N   UNL d   1     -29.649  21.833  24.839  0.00  0.00    -0.280 N 
ATOM     30  O   UNL d   1     -27.701  21.802  26.030  0.00  0.00    -0.244 OA
ATOM     31  C   UNL d   1     -30.023  22.387  23.629  0.00  0.00     0.155 A 
ATOM     32  C   UNL d   1     -30.568  21.054  25.678  0.00  0.00     0.161 C 
ATOM     33  N   UNL d   1     -29.027  23.045  23.149  0.00  0.00    -0.147 NA
ATOM     34  C   UNL d   1     -31.398  22.193  23.033  0.00  0.00     0.248 C 
ATOM     35  O   UNL d   1     -32.262  21.724  24.079  0.00  0.00    -0.382 OA
ATOM     36  C   UNL d   1     -31.741  20.600  24.797  0.00  0.00     0.188 C 
ENDBRANCH   5  27
TORSDOF 6
ENDMDL
