MODEL 1
REMARK VINA RESULT:     -12.9      0.000      0.000
REMARK  5 active torsions:
REMARK  status: ('A' for Active; 'I' for Inactive)
REMARK    1  A    between atoms: C_4  and  C_5 
REMARK    2  A    between atoms: C_5  and  O_7 
REMARK    3  A    between atoms: C_11  and  C_12 
REMARK    4  A    between atoms: C_17  and  C_18 
REMARK    5  A    between atoms: C_21  and  O_22 
ROOT
ATOM      1  C   UNL d   1     -26.778  22.758  22.889  0.00  0.00     0.093 A 
ATOM      2  C   UNL d   1     -26.175  23.813  23.580  0.00  0.00     0.173 A 
ATOM      3  F   UNL d   1     -26.899  24.552  24.450  0.00  0.00    -0.202 F 
ATOM      4  C   UNL d   1     -24.841  24.100  23.374  0.00  0.00     0.170 A 
ATOM      5  F   UNL d   1     -24.258  25.120  24.042  0.00  0.00    -0.202 F 
ATOM      6  C   UNL d   1     -24.093  23.336  22.476  0.00  0.00     0.058 A 
ATOM      7  C   UNL d   1     -24.694  22.285  21.781  0.00  0.00     0.170 A 
ATOM      8  F   UNL d   1     -23.970  21.551  20.910  0.00  0.00    -0.202 F 
ATOM      9  C   UNL d   1     -26.028  21.993  21.989  0.00  0.00     0.173 A 
ATOM     10  F   UNL d   1     -26.609  20.973  21.321  0.00  0.00    -0.202 F 
ENDROOT
BRANCH   1  11
ATOM     11  C   UNL d   1     -28.205  22.449  23.109  0.00  0.00     0.145 A 
ATOM     12  N   UNL d   1     -28.730  21.921  24.259  0.00  0.00    -0.337 N 
ATOM     13  C   UNL d   1     -30.086  21.788  24.066  0.00  0.00     0.080 A 
ATOM     14  H   UNL d   1     -28.239  21.687  25.061  0.00  0.00     0.167 HD
ATOM     15  C   UNL d   1     -31.140  21.318  24.862  0.00  0.00     0.067 A 
ATOM     16  C   UNL d   1     -30.347  22.245  22.762  0.00  0.00     0.087 A 
ATOM     17  C   UNL d   1     -32.438  21.310  24.351  0.00  0.00     0.027 A 
ATOM     18  C   UNL d   1     -32.684  21.761  23.067  0.00  0.00    -0.059 A 
ATOM     19  C   UNL d   1     -34.092  21.745  22.529  0.00  0.00     0.048 C 
ATOM     20  C   UNL d   1     -31.656  22.225  22.274  0.00  0.00     0.040 A 
ATOM     21  N   UNL d   1     -29.162  22.634  22.231  0.00  0.00    -0.228 NA
BRANCH  15  22
ATOM     22  C   UNL d   1     -30.879  20.838  26.231  0.00  0.00     0.178 C 
ATOM     23  O   UNL d   1     -30.192  21.498  26.986  0.00  0.00    -0.646 OA
BRANCH  22  24
ATOM     24  O   UNL d   1     -31.400  19.666  26.646  0.00  0.00    -0.773 OA
ATOM     25  H   UNL d   1     -31.671  19.610  27.572  0.00  0.00     0.167 HD
ENDBRANCH  22  24
ENDBRANCH  15  22
ENDBRANCH   1  11
BRANCH   6  26
ATOM     26  C   UNL d   1     -22.659  23.645  22.256  0.00  0.00    -0.019 A 
ATOM     27  C   UNL d   1     -22.246  24.226  21.057  0.00  0.00     0.015 A 
ATOM     28  C   UNL d   1     -20.913  24.517  20.857  0.00  0.00     0.037 A 
ATOM     29  C   UNL d   1     -19.981  24.223  21.844  0.00  0.00     0.065 A 
ATOM     30  C   UNL d   1     -20.390  23.646  23.039  0.00  0.00     0.037 A 
ATOM     31  C   UNL d   1     -21.721  23.356  23.247  0.00  0.00     0.015 A 
BRANCH  29  32
ATOM     32  O   UNL d   1     -18.668  24.507  21.642  0.00  0.00    -0.361 OA
ATOM     33  H   UNL d   1     -18.064  23.981  22.184  0.00  0.00     0.217 HD
ENDBRANCH  29  32
ENDBRANCH   6  26
TORSDOF 5
ENDMDL
