MODEL 1
REMARK VINA RESULT:      -9.9      0.000      0.000
REMARK  7 active torsions:
REMARK  status: ('A' for Active; 'I' for Inactive)
REMARK    1  A    between atoms: C_2  and  O_3 
REMARK    2  A    between atoms: O_3  and  C_4 
REMARK    3  A    between atoms: C_4  and  C_6 
REMARK    4  A    between atoms: C_6  and  C_9 
REMARK    5  A    between atoms: C_9  and  N_10 
REMARK    6  A    between atoms: N_10  and  C_11 
REMARK    7  A    between atoms: N_23  and  C_24 
ROOT
ATOM      1  C   UNL d   1     -24.858  23.149  22.888  0.00  0.00     0.135 C 
ATOM      2  C   UNL d   1     -24.729  22.100  21.923  0.00  0.00     0.107 C 
ATOM      3  N   UNL d   1     -24.626  21.266  21.157  0.00  0.00    -0.191 NA
ENDROOT
BRANCH   1   4
ATOM      4  C   UNL d   1     -23.942  24.293  22.853  0.00  0.00     0.305 C 
ATOM      5  O   UNL d   1     -22.881  24.204  22.264  0.00  0.00    -0.258 OA
BRANCH   4   6
ATOM      6  O   UNL d   1     -24.275  25.444  23.473  0.00  0.00    -0.317 OA
BRANCH   6   7
ATOM      7  C   UNL d   1     -23.476  26.616  23.160  0.00  0.00     0.174 C 
ATOM      8  C   UNL d   1     -22.553  26.933  24.338  0.00  0.00     0.034 C 
ENDBRANCH   6   7
ENDBRANCH   4   6
ENDBRANCH   1   4
BRANCH   1   9
ATOM      9  C   UNL d   1     -25.844  23.084  23.851  0.00  0.00     0.117 C 
BRANCH   9  10
ATOM     10  N   UNL d   1     -27.075  23.579  23.594  0.00  0.00    -0.364 N 
ATOM     11  H   UNL d   1     -27.169  24.426  23.131  0.00  0.00     0.165 HD
BRANCH  10  12
ATOM     12  C   UNL d   1     -28.212  22.869  23.995  0.00  0.00     0.032 A 
ATOM     13  C   UNL d   1     -29.288  22.745  23.133  0.00  0.00     0.044 A 
ATOM     14  C   UNL d   1     -30.418  22.037  23.537  0.00  0.00     0.005 A 
ATOM     15  C   UNL d   1     -30.467  21.458  24.814  0.00  0.00     0.046 A 
ATOM     16  C   UNL d   1     -31.702  21.721  22.884  0.00  0.00     0.003 A 
ATOM     17  C   UNL d   1     -29.375  21.590  25.666  0.00  0.00     0.033 A 
ATOM     18  N   UNL d   1     -31.687  20.818  24.955  0.00  0.00    -0.346 N 
ATOM     19  C   UNL d   1     -28.261  22.290  25.260  0.00  0.00     0.032 A 
ATOM     20  C   UNL d   1     -32.443  20.968  23.806  0.00  0.00     0.046 A 
ATOM     21  C   UNL d   1     -33.715  20.524  23.458  0.00  0.00     0.030 A 
ATOM     22  C   UNL d   1     -34.235  20.827  22.217  0.00  0.00     0.002 A 
ATOM     23  C   UNL d   1     -33.501  21.571  21.307  0.00  0.00     0.001 A 
ATOM     24  C   UNL d   1     -32.240  22.019  21.634  0.00  0.00     0.014 A 
BRANCH  18  25
ATOM     25  C   UNL d   1     -32.117  20.090  26.151  0.00  0.00     0.125 C 
ATOM     26  C   UNL d   1     -31.641  18.638  26.064  0.00  0.00     0.027 C 
ENDBRANCH  18  25
ENDBRANCH  10  12
ENDBRANCH   9  10
ENDBRANCH   1   9
TORSDOF 7
ENDMDL
