MODEL 1
REMARK VINA RESULT:      -9.0      0.000      0.000
REMARK  5 active torsions:
REMARK  status: ('A' for Active; 'I' for Inactive)
REMARK    1  A    between atoms: C_7  and  N_8 
REMARK    2  A    between atoms: C_10  and  C_11 
REMARK    3  A    between atoms: C_16  and  C_17 
REMARK    4  A    between atoms: C_19  and  C_20 
REMARK    5  A    between atoms: C_20  and  O_22 
ROOT
ATOM      1  N   UNL d   1     -17.511  27.057  24.935  0.00  0.00    -0.288 N 
ATOM      2  C   UNL d   1     -18.486  27.177  25.887  0.00  0.00     0.109 A 
ATOM      3  C   UNL d   1     -19.707  26.639  25.737  0.00  0.00    -0.027 A 
ATOM      4  C   UNL d   1     -20.019  25.895  24.514  0.00  0.00    -0.011 A 
ATOM      5  C   UNL d   1     -21.271  25.320  24.302  0.00  0.00     0.031 A 
ATOM      6  C   UNL d   1     -21.509  24.622  23.126  0.00  0.00     0.053 A 
ATOM      7  C   UNL d   1     -20.507  24.503  22.155  0.00  0.00     0.131 A 
ATOM      8  F   UNL d   1     -20.757  23.824  21.014  0.00  0.00    -0.205 F 
ATOM      9  C   UNL d   1     -19.277  25.067  22.350  0.00  0.00     0.061 A 
ATOM     10  C   UNL d   1     -19.013  25.769  23.526  0.00  0.00     0.046 A 
ATOM     11  C   UNL d   1     -17.710  26.392  23.781  0.00  0.00     0.263 A 
ATOM     12  O   UNL d   1     -16.817  26.308  22.957  0.00  0.00    -0.267 OA
ENDROOT
BRANCH   6  13
ATOM     13  C   UNL d   1     -22.837  24.000  22.894  0.00  0.00     0.184 A 
ATOM     14  N   UNL d   1     -23.888  24.126  23.674  0.00  0.00    -0.150 NA
ATOM     15  N   UNL d   1     -24.921  23.381  23.082  0.00  0.00    -0.256 N 
ATOM     16  C   UNL d   1     -24.409  22.844  21.959  0.00  0.00     0.153 A 
ATOM     17  C   UNL d   1     -26.287  23.219  23.587  0.00  0.00     0.181 C 
ATOM     18  N   UNL d   1     -23.162  23.216  21.858  0.00  0.00    -0.209 NA
BRANCH  16  19
ATOM     19  C   UNL d   1     -25.149  21.960  20.987  0.00  0.00     0.185 C 
ATOM     20  C   UNL d   1     -24.590  22.173  19.578  0.00  0.00     0.048 C 
BRANCH  19  21
ATOM     21  O   UNL d   1     -24.981  20.593  21.365  0.00  0.00    -0.388 OA
ATOM     22  H   UNL d   1     -24.059  20.302  21.386  0.00  0.00     0.210 HD
ENDBRANCH  19  21
ENDBRANCH  16  19
ENDBRANCH   6  13
BRANCH   3  23
ATOM     23  C   UNL d   1     -20.745  26.798  26.816  0.00  0.00     0.013 C 
ATOM     24  C   UNL d   1     -20.091  26.602  28.186  0.00  0.00     0.015 C 
ATOM     25  C   UNL d   1     -21.353  28.200  26.737  0.00  0.00     0.015 C 
ENDBRANCH   3  23
BRANCH   1  26
ATOM     26  C   UNL d   1     -16.263  27.648  25.168  0.00  0.00     0.048 A 
ATOM     27  C   UNL d   1     -15.258  26.926  25.799  0.00  0.00    -0.035 A 
ATOM     28  C   UNL d   1     -15.510  25.505  26.233  0.00  0.00     0.050 C 
ATOM     29  C   UNL d   1     -14.028  27.511  26.027  0.00  0.00     0.009 A 
ATOM     30  C   UNL d   1     -13.796  28.814  25.628  0.00  0.00     0.001 A 
ATOM     31  C   UNL d   1     -14.795  29.536  25.000  0.00  0.00     0.002 A 
ATOM     32  C   UNL d   1     -16.025  28.956  24.764  0.00  0.00     0.030 A 
ENDBRANCH   1  26
TORSDOF 5
ENDMDL
