MODEL 1
REMARK VINA RESULT:     -10.1      0.000      0.000
REMARK  8 active torsions:
REMARK  status: ('A' for Active; 'I' for Inactive)
REMARK    1  A    between atoms: C_2  and  C_3 
REMARK    2  A    between atoms: C_3  and  C_4 
REMARK    3  A    between atoms: C_4  and  O_6 
REMARK    4  A    between atoms: O_6  and  C_7 
REMARK    5  A    between atoms: C_9  and  N_10 
REMARK    6  A    between atoms: N_14  and  C_15 
REMARK    7  A    between atoms: C_23  and  C_24 
REMARK       I    between atoms: C_24  and  N_26 
REMARK    8  A    between atoms: N_26  and  C_27 
ROOT
ATOM      1  C   UNL d   1     -26.382  23.125  23.323  0.00  0.00     0.087 A 
ATOM      2  C   UNL d   1     -27.755  22.979  23.424  0.00  0.00     0.073 A 
ATOM      3  C   UNL d   1     -28.435  22.166  22.528  0.00  0.00     0.104 A 
ATOM      4  C   UNL d   1     -27.740  21.494  21.522  0.00  0.00     0.146 A 
ATOM      5  F   UNL d   1     -28.408  20.706  20.653  0.00  0.00    -0.204 F 
ATOM      6  C   UNL d   1     -26.374  21.634  21.413  0.00  0.00     0.064 A 
ATOM      7  C   UNL d   1     -25.682  22.455  22.309  0.00  0.00     0.068 A 
ENDROOT
BRANCH   7   8
ATOM      8  C   UNL d   1     -24.222  22.612  22.191  0.00  0.00     0.259 C 
ATOM      9  O   UNL d   1     -23.504  21.632  22.169  0.00  0.00    -0.267 OA
ATOM     10  N   UNL d   1     -23.683  23.845  22.110  0.00  0.00    -0.320 N 
ATOM     11  H   UNL d   1     -24.247  24.629  22.206  0.00  0.00     0.169 HD
BRANCH  10  12
ATOM     12  C   UNL d   1     -22.309  23.994  21.887  0.00  0.00     0.073 A 
ATOM     13  C   UNL d   1     -21.408  23.807  22.929  0.00  0.00     0.143 A 
ATOM     14  C   UNL d   1     -20.052  23.949  22.702  0.00  0.00     0.044 A 
ATOM     15  F   UNL d   1     -21.858  23.480  24.161  0.00  0.00    -0.204 F 
ATOM     16  C   UNL d   1     -19.593  24.289  21.443  0.00  0.00     0.003 A 
ATOM     17  C   UNL d   1     -20.487  24.481  20.406  0.00  0.00     0.002 A 
ATOM     18  C   UNL d   1     -21.842  24.335  20.624  0.00  0.00     0.033 A 
ENDBRANCH  10  12
ENDBRANCH   7   8
BRANCH   1  19
ATOM     19  O   UNL d   1     -25.716  23.919  24.199  0.00  0.00    -0.345 OA
BRANCH  19  20
ATOM     20  C   UNL d   1     -26.059  25.306  24.207  0.00  0.00     0.124 C 
ATOM     21  C   UNL d   1     -26.380  25.744  25.638  0.00  0.00     0.040 C 
BRANCH  20  22
ATOM     22  C   UNL d   1     -24.881  26.126  23.675  0.00  0.00     0.032 C 
BRANCH  22  23
ATOM     23  C   UNL d   1     -23.763  26.150  24.719  0.00  0.00    -0.002 C 
ATOM     24  C   UNL d   1     -22.573  26.944  24.175  0.00  0.00     0.005 C 
ENDBRANCH  22  23
ENDBRANCH  20  22
ENDBRANCH  19  20
ENDBRANCH   1  19
BRANCH   3  25
ATOM     25  N   UNL d   1     -29.820  22.020  22.633  0.00  0.00    -0.178 N 
ATOM     26  C   UNL d   1     -30.722  22.222  21.649  0.00  0.00     0.351 A 
ATOM     27  N   UNL d   1     -31.942  21.970  22.163  0.00  0.00    -0.280 N 
ATOM     28  O   UNL d   1     -30.478  22.565  20.506  0.00  0.00    -0.244 OA
ATOM     29  C   UNL d   1     -31.791  21.617  23.482  0.00  0.00     0.127 A 
ATOM     30  N   UNL d   1     -30.531  21.642  23.779  0.00  0.00    -0.149 NA
ATOM     31  C   UNL d   1     -32.908  21.261  24.429  0.00  0.00     0.093 C 
BRANCH  27  32
ATOM     32  C   UNL d   1     -33.213  22.063  21.441  0.00  0.00     0.088 C 
ATOM     33  C   UNL d   1     -33.770  20.658  21.204  0.00  0.00     0.032 C 
ATOM     34  C   UNL d   1     -34.212  22.874  22.270  0.00  0.00     0.032 C 
ENDBRANCH  27  32
ENDBRANCH   3  25
TORSDOF 8
ENDMDL
