MODEL 1
REMARK VINA RESULT:      -9.9      0.000      0.000
REMARK  9 active torsions:
REMARK  status: ('A' for Active; 'I' for Inactive)
REMARK    1  A    between atoms: C_2  and  O_3 
REMARK    2  A    between atoms: C_2  and  C_32 
REMARK    3  A    between atoms: O_3  and  C_4 
REMARK    4  A    between atoms: C_6  and  N_7 
REMARK    5  A    between atoms: C_9  and  C_10 
REMARK    6  A    between atoms: C_10  and  C_11 
REMARK    7  A    between atoms: C_11  and  N_12 
REMARK    8  A    between atoms: C_20  and  C_21 
REMARK       I    between atoms: C_21  and  N_23 
REMARK    9  A    between atoms: N_23  and  C_24 
ROOT
ATOM      1  C   UNL d   1     -24.691  23.386  22.649  0.00  0.00     0.087 A 
ATOM      2  C   UNL d   1     -25.950  22.836  22.816  0.00  0.00     0.073 A 
ATOM      3  C   UNL d   1     -26.812  23.349  23.774  0.00  0.00     0.104 A 
ATOM      4  C   UNL d   1     -26.411  24.414  24.582  0.00  0.00     0.146 A 
ATOM      5  F   UNL d   1     -27.254  24.905  25.516  0.00  0.00    -0.204 F 
ATOM      6  C   UNL d   1     -25.159  24.965  24.428  0.00  0.00     0.064 A 
ATOM      7  C   UNL d   1     -24.286  24.457  23.460  0.00  0.00     0.068 A 
ENDROOT
BRANCH   3   8
ATOM      8  N   UNL d   1     -28.083  22.794  23.937  0.00  0.00    -0.178 N 
ATOM      9  C   UNL d   1     -28.486  22.002  24.953  0.00  0.00     0.351 A 
ATOM     10  N   UNL d   1     -29.779  21.690  24.733  0.00  0.00    -0.289 N 
ATOM     11  O   UNL d   1     -27.808  21.640  25.897  0.00  0.00    -0.244 OA
ATOM     12  C   UNL d   1     -30.174  22.289  23.562  0.00  0.00     0.132 A 
ATOM     13  C   UNL d   1     -30.617  20.852  25.593  0.00  0.00     0.162 C 
ATOM     14  N   UNL d   1     -29.177  22.954  23.075  0.00  0.00    -0.149 NA
BRANCH  12  15
ATOM     15  C   UNL d   1     -31.548  22.193  22.948  0.00  0.00     0.110 C 
BRANCH  15  16
ATOM     16  C   UNL d   1     -31.423  22.157  21.424  0.00  0.00     0.274 C 
BRANCH  16  17
ATOM     17  N   UNL d   1     -32.742  21.895  20.831  0.00  0.00     0.078 N 
ATOM     18  H   UNL d   1     -32.822  20.933  20.539  0.00  0.00     0.312 HD
ATOM     19  H   UNL d   1     -33.482  22.141  21.472  0.00  0.00     0.312 HD
ENDBRANCH  16  17
ENDBRANCH  15  16
ENDBRANCH  12  15
ENDBRANCH   3   8
BRANCH   1  20
ATOM     20  O   UNL d   1     -23.850  22.888  21.708  0.00  0.00    -0.336 OA
BRANCH  20  21
ATOM     21  C   UNL d   1     -23.969  23.418  20.386  0.00  0.00     0.232 C 
ATOM     22  C   UNL d   1     -22.593  23.867  19.891  0.00  0.00     0.049 C 
BRANCH  21  23
ATOM     23  C   UNL d   1     -24.519  22.338  19.452  0.00  0.00     0.413 C 
ATOM     24  F   UNL d   1     -25.794  21.956  19.882  0.00  0.00    -0.168 F 
ATOM     25  F   UNL d   1     -24.598  22.844  18.150  0.00  0.00    -0.168 F 
ATOM     26  F   UNL d   1     -23.668  21.228  19.469  0.00  0.00    -0.168 F 
ENDBRANCH  21  23
ENDBRANCH  20  21
ENDBRANCH   1  20
BRANCH   7  27
ATOM     27  C   UNL d   1     -22.946  25.044  23.292  0.00  0.00     0.259 C 
ATOM     28  O   UNL d   1     -22.806  26.073  22.658  0.00  0.00    -0.267 OA
ATOM     29  N   UNL d   1     -21.872  24.439  23.840  0.00  0.00    -0.318 N 
ATOM     30  H   UNL d   1     -21.969  23.576  24.272  0.00  0.00     0.169 HD
BRANCH  29  31
ATOM     31  C   UNL d   1     -20.617  25.059  23.786  0.00  0.00     0.113 A 
ATOM     32  C   UNL d   1     -20.266  26.009  24.738  0.00  0.00     0.146 A 
ATOM     33  C   UNL d   1     -19.026  26.617  24.681  0.00  0.00     0.045 A 
ATOM     34  F   UNL d   1     -21.136  26.338  25.717  0.00  0.00    -0.204 F 
ATOM     35  C   UNL d   1     -18.134  26.282  23.679  0.00  0.00     0.006 A 
ATOM     36  C   UNL d   1     -18.478  25.338  22.730  0.00  0.00     0.045 A 
ATOM     37  C   UNL d   1     -19.715  24.720  22.784  0.00  0.00     0.146 A 
ATOM     38  F   UNL d   1     -20.048  23.792  21.860  0.00  0.00    -0.204 F 
ENDBRANCH  29  31
ENDBRANCH   7  27
TORSDOF 9
ENDMDL
