MODEL 1
REMARK VINA RESULT:      -8.7      0.000      0.000
REMARK  7 active torsions:
REMARK  status: ('A' for Active; 'I' for Inactive)
REMARK    1  A    between atoms: C_2  and  C_3 
REMARK    2  A    between atoms: N_5  and  C_6 
REMARK    3  A    between atoms: C_8  and  O_9 
REMARK    4  A    between atoms: O_9  and  C_10 
REMARK    5  A    between atoms: C_10  and  C_12 
REMARK    6  A    between atoms: C_18  and  C_19 
REMARK       I    between atoms: C_19  and  N_21 
REMARK    7  A    between atoms: N_21  and  C_22 
ROOT
ATOM      1  C   UNL d   1     -22.675  24.811  23.254  0.00  0.00     0.104 A 
ATOM      2  C   UNL d   1     -21.381  24.524  23.667  0.00  0.00     0.073 A 
ATOM      3  C   UNL d   1     -20.736  25.366  24.555  0.00  0.00     0.087 A 
ATOM      4  C   UNL d   1     -21.392  26.508  25.037  0.00  0.00     0.068 A 
ATOM      5  C   UNL d   1     -22.698  26.787  24.620  0.00  0.00     0.064 A 
ATOM      6  C   UNL d   1     -23.330  25.946  23.731  0.00  0.00     0.146 A 
ATOM      7  F   UNL d   1     -24.589  26.218  23.324  0.00  0.00    -0.204 F 
ENDROOT
BRANCH   4   8
ATOM      8  C   UNL d   1     -20.711  27.408  25.984  0.00  0.00     0.259 C 
ATOM      9  O   UNL d   1     -21.058  28.571  26.073  0.00  0.00    -0.267 OA
ATOM     10  N   UNL d   1     -19.706  26.944  26.751  0.00  0.00    -0.322 N 
ATOM     11  H   UNL d   1     -19.390  26.033  26.637  0.00  0.00     0.169 HD
BRANCH  10  12
ATOM     12  C   UNL d   1     -19.119  27.770  27.707  0.00  0.00     0.047 A 
ATOM     13  C   UNL d   1     -19.442  27.622  29.073  0.00  0.00     0.019 A 
ATOM     14  C   UNL d   1     -18.837  28.472  30.031  0.00  0.00     0.069 A 
ATOM     15  C   UNL d   1     -20.354  26.645  29.506  0.00  0.00     0.018 A 
ATOM     16  C   UNL d   1     -17.924  29.450  29.601  0.00  0.00     0.032 A 
ATOM     17  N   UNL d   1     -19.139  28.335  31.326  0.00  0.00    -0.253 NA
ATOM     18  C   UNL d   1     -17.630  29.573  28.277  0.00  0.00     0.005 A 
ATOM     19  C   UNL d   1     -18.218  28.744  27.328  0.00  0.00     0.030 A 
ATOM     20  C   UNL d   1     -19.990  27.424  31.734  0.00  0.00     0.031 A 
ATOM     21  C   UNL d   1     -20.296  27.312  33.206  0.00  0.00     0.070 C 
ATOM     22  C   UNL d   1     -20.620  26.558  30.844  0.00  0.00     0.027 A 
ENDBRANCH  10  12
ENDBRANCH   4   8
BRANCH   3  23
ATOM     23  O   UNL d   1     -19.470  25.087  24.960  0.00  0.00    -0.341 OA
BRANCH  23  24
ATOM     24  C   UNL d   1     -18.439  25.187  23.976  0.00  0.00     0.158 C 
ATOM     25  C   UNL d   1     -19.009  25.811  22.701  0.00  0.00     0.045 C 
BRANCH  24  26
ATOM     26  C   UNL d   1     -17.324  26.053  24.504  0.00  0.00    -0.029 A 
ATOM     27  C   UNL d   1     -16.549  25.615  25.561  0.00  0.00     0.010 A 
ATOM     28  C   UNL d   1     -15.527  26.410  26.046  0.00  0.00     0.001 A 
ATOM     29  C   UNL d   1     -15.278  27.642  25.471  0.00  0.00     0.000 A 
ATOM     30  C   UNL d   1     -16.052  28.080  24.413  0.00  0.00     0.001 A 
ATOM     31  C   UNL d   1     -17.072  27.284  23.926  0.00  0.00     0.010 A 
ENDBRANCH  24  26
ENDBRANCH  23  24
ENDBRANCH   3  23
BRANCH   1  32
ATOM     32  N   UNL d   1     -23.323  23.960  22.355  0.00  0.00    -0.178 N 
ATOM     33  N   UNL d   1     -24.134  22.865  22.686  0.00  0.00    -0.149 NA
ATOM     34  C   UNL d   1     -24.553  22.327  21.585  0.00  0.00     0.130 A 
ATOM     35  N   UNL d   1     -24.043  23.035  20.524  0.00  0.00    -0.289 N 
ATOM     36  C   UNL d   1     -23.291  24.043  21.009  0.00  0.00     0.351 A 
ATOM     37  C   UNL d   1     -24.281  22.746  19.108  0.00  0.00     0.162 C 
ATOM     38  O   UNL d   1     -22.689  24.874  20.352  0.00  0.00    -0.244 OA
BRANCH  34  39
ATOM     39  C   UNL d   1     -25.452  21.122  21.485  0.00  0.00     0.076 C 
ATOM     40  C   UNL d   1     -26.914  21.574  21.476  0.00  0.00     0.013 C 
ENDBRANCH  34  39
ENDBRANCH   1  32
TORSDOF 7
ENDMDL
