MODEL 1
REMARK VINA RESULT:     -10.3      0.000      0.000
REMARK  7 active torsions:
REMARK  status: ('A' for Active; 'I' for Inactive)
REMARK    1  A    between atoms: O_2  and  C_3 
REMARK    2  A    between atoms: C_9  and  N_10 
REMARK       I    between atoms: N_10  and  C_11 
REMARK    3  A    between atoms: C_11  and  C_13 
REMARK    4  A    between atoms: C_17  and  N_18 
REMARK    5  A    between atoms: C_30  and  O_31 
REMARK    6  A    between atoms: O_31  and  C_32 
REMARK    7  A    between atoms: C_32  and  C_34 
ROOT
ATOM      1  C   UNL d   1     -24.063  24.679  23.583  0.00  0.00     0.068 A 
ATOM      2  C   UNL d   1     -25.026  25.123  24.495  0.00  0.00     0.064 A 
ATOM      3  C   UNL d   1     -26.261  24.514  24.542  0.00  0.00     0.146 A 
ATOM      4  F   UNL d   1     -27.192  24.946  25.420  0.00  0.00    -0.204 F 
ATOM      5  C   UNL d   1     -26.549  23.449  23.689  0.00  0.00     0.104 A 
ATOM      6  C   UNL d   1     -25.597  23.000  22.785  0.00  0.00     0.073 A 
ATOM      7  C   UNL d   1     -24.355  23.608  22.727  0.00  0.00     0.087 A 
ENDROOT
BRANCH   1   8
ATOM      8  C   UNL d   1     -22.743  25.332  23.526  0.00  0.00     0.259 C 
ATOM      9  N   UNL d   1     -21.665  24.720  24.053  0.00  0.00    -0.320 N 
ATOM     10  H   UNL d   1     -21.747  23.829  24.428  0.00  0.00     0.169 HD
ATOM     11  O   UNL d   1     -22.627  26.424  23.002  0.00  0.00    -0.267 OA
BRANCH   9  12
ATOM     12  C   UNL d   1     -20.424  25.370  24.061  0.00  0.00     0.074 A 
ATOM     13  C   UNL d   1     -20.125  26.290  25.063  0.00  0.00     0.095 A 
ATOM     14  C   UNL d   1     -18.896  26.932  25.065  0.00  0.00     0.039 A 
ATOM     15  C   UNL d   1     -17.971  26.657  24.075  0.00  0.00     0.003 A 
ATOM     16  C   UNL d   1     -18.267  25.743  23.080  0.00  0.00     0.009 A 
ATOM     17  C   UNL d   1     -19.493  25.105  23.068  0.00  0.00    -0.032 A 
ATOM     18  C   UNL d   1     -19.816  24.115  21.978  0.00  0.00     0.050 C 
BRANCH  13  19
ATOM     19  O   UNL d   1     -21.035  26.559  26.037  0.00  0.00    -0.354 OA
ATOM     20  C   UNL d   1     -21.557  27.889  26.089  0.00  0.00     0.210 C 
ENDBRANCH  13  19
ENDBRANCH   9  12
ENDBRANCH   1   8
BRANCH   7  21
ATOM     21  O   UNL d   1     -23.423  23.170  21.843  0.00  0.00    -0.336 OA
BRANCH  21  22
ATOM     22  C   UNL d   1     -23.704  23.364  20.455  0.00  0.00     0.232 C 
ATOM     23  C   UNL d   1     -22.415  23.738  19.721  0.00  0.00     0.049 C 
BRANCH  22  24
ATOM     24  C   UNL d   1     -24.272  22.073  19.864  0.00  0.00     0.413 C 
ATOM     25  F   UNL d   1     -23.592  21.760  18.683  0.00  0.00    -0.168 F 
ATOM     26  F   UNL d   1     -24.115  21.030  20.784  0.00  0.00    -0.168 F 
ATOM     27  F   UNL d   1     -25.633  22.246  19.586  0.00  0.00    -0.168 F 
ENDBRANCH  22  24
ENDBRANCH  21  22
ENDBRANCH   7  21
BRANCH   5  28
ATOM     28  N   UNL d   1     -27.801  22.832  23.746  0.00  0.00    -0.178 N 
ATOM     29  C   UNL d   1     -28.266  22.057  24.752  0.00  0.00     0.351 A 
ATOM     30  N   UNL d   1     -29.501  21.671  24.420  0.00  0.00    -0.282 N 
ATOM     31  O   UNL d   1     -27.671  21.766  25.775  0.00  0.00    -0.244 OA
ATOM     32  C   UNL d   1     -29.807  22.206  23.175  0.00  0.00     0.155 A 
ATOM     33  C   UNL d   1     -30.450  20.830  25.164  0.00  0.00     0.137 C 
ATOM     34  N   UNL d   1     -28.806  22.897  22.767  0.00  0.00    -0.147 NA
ATOM     35  C   UNL d   1     -31.136  21.952  22.492  0.00  0.00     0.248 C 
ATOM     36  O   UNL d   1     -32.154  22.569  23.289  0.00  0.00    -0.384 OA
ATOM     37  C   UNL d   1     -32.625  21.826  24.393  0.00  0.00     0.169 C 
ATOM     38  C   UNL d   1     -31.651  21.707  25.542  0.00  0.00     0.046 C 
ENDBRANCH   5  28
TORSDOF 7
ENDMDL
