MODEL 1
REMARK VINA RESULT:     -10.7      0.000      0.000
REMARK  6 active torsions:
REMARK  status: ('A' for Active; 'I' for Inactive)
REMARK    1  A    between atoms: C_3  and  C_4 
REMARK    2  A    between atoms: C_4  and  N_5 
REMARK       I    between atoms: N_8  and  C_9 
REMARK    3  A    between atoms: C_9  and  C_11 
REMARK    4  A    between atoms: C_21  and  N_22 
REMARK    5  A    between atoms: N_22  and  C_23 
REMARK    6  A    between atoms: C_28  and  O_29 
ROOT
ATOM      1  C   UNL d   1     -19.752  24.344  21.926  0.00  0.00     0.051 C 
ATOM      2  C   UNL d   1     -20.277  25.298  22.967  0.00  0.00    -0.027 A 
ATOM      3  C   UNL d   1     -21.591  25.721  22.919  0.00  0.00    -0.022 A 
ATOM      4  C   UNL d   1     -22.074  26.597  23.874  0.00  0.00     0.009 A 
ATOM      5  C   UNL d   1     -21.242  27.054  24.880  0.00  0.00     0.003 A 
ATOM      6  C   UNL d   1     -19.928  26.632  24.938  0.00  0.00     0.030 A 
ATOM      7  C   UNL d   1     -19.439  25.756  23.977  0.00  0.00     0.040 A 
ENDROOT
BRANCH   3   8
ATOM      8  C   UNL d   1     -22.501  25.226  21.824  0.00  0.00     0.311 C 
BRANCH   8   9
ATOM      9  N   UNL d   1     -23.367  24.163  22.350  0.00  0.00     0.095 N 
ATOM     10  C   UNL d   1     -23.779  23.242  21.283  0.00  0.00     0.292 C 
ATOM     11  C   UNL d   1     -24.526  22.054  21.897  0.00  0.00     0.156 C 
ATOM     12  N   UNL d   1     -25.624  22.572  22.727  0.00  0.00    -0.348 N 
ATOM     13  C   UNL d   1     -25.312  23.602  23.729  0.00  0.00     0.156 C 
ATOM     14  C   UNL d   1     -26.883  22.114  22.575  0.00  0.00     0.224 C 
ATOM     15  C   UNL d   1     -24.534  24.729  23.043  0.00  0.00     0.292 C 
ATOM     16  O   UNL d   1     -27.122  21.264  21.743  0.00  0.00    -0.273 OA
BRANCH  14  17
ATOM     17  C   UNL d   1     -27.992  22.659  23.436  0.00  0.00     0.078 C 
ATOM     18  C   UNL d   1     -29.279  22.809  22.606  0.00  0.00     0.014 C 
ATOM     19  C   UNL d   1     -30.338  21.903  23.267  0.00  0.00     0.001 C 
ATOM     20  C   UNL d   1     -29.853  21.756  24.730  0.00  0.00     0.001 C 
ATOM     21  C   UNL d   1     -28.315  21.667  24.572  0.00  0.00     0.014 C 
ENDBRANCH  14  17
ENDBRANCH   8   9
ENDBRANCH   3   8
BRANCH   7  22
ATOM     22  N   UNL d   1     -18.109  25.331  24.029  0.00  0.00    -0.335 N 
ATOM     23  H   UNL d   1     -17.884  24.495  24.467  0.00  0.00     0.168 HD
BRANCH  22  24
ATOM     24  C   UNL d   1     -17.111  26.105  23.456  0.00  0.00     0.172 A 
ATOM     25  S   UNL d   1     -15.824  25.497  22.508  0.00  0.00    -0.052 SA
ATOM     26  C   UNL d   1     -15.197  27.127  22.298  0.00  0.00     0.039 A 
ATOM     27  C   UNL d   1     -15.997  27.985  22.951  0.00  0.00     0.053 A 
ATOM     28  C   UNL d   1     -13.964  27.511  21.515  0.00  0.00     0.160 C 
ATOM     29  N   UNL d   1     -17.016  27.390  23.560  0.00  0.00    -0.228 NA
ATOM     30  C   UNL d   1     -15.746  29.485  22.978  0.00  0.00     0.060 C 
ATOM     31  C   UNL d   1     -14.297  29.749  22.564  0.00  0.00     0.009 C 
ATOM     32  C   UNL d   1     -14.002  29.020  21.250  0.00  0.00     0.037 C 
BRANCH  28  33
ATOM     33  O   UNL d   1     -13.945  26.806  20.272  0.00  0.00    -0.390 OA
ATOM     34  H   UNL d   1     -13.111  26.885  19.788  0.00  0.00     0.210 HD
ENDBRANCH  28  33
ENDBRANCH  22  24
ENDBRANCH   7  22
TORSDOF 6
ENDMDL
