MODEL 1
REMARK VINA RESULT:     -12.9      0.000      0.000
REMARK  6 active torsions:
REMARK  status: ('A' for Active; 'I' for Inactive)
REMARK    1  A    between atoms: C_5  and  C_6 
REMARK    2  A    between atoms: C_6  and  O_8 
REMARK    3  A    between atoms: C_10  and  C_11 
REMARK    4  A    between atoms: C_16  and  C_17 
REMARK    5  A    between atoms: C_20  and  C_21 
REMARK    6  A    between atoms: C_21  and  N_22 
ROOT
ATOM      1  C   UNL d   1     -27.005  22.625  22.977  0.00  0.00     0.058 A 
ATOM      2  C   UNL d   1     -26.239  21.901  22.062  0.00  0.00     0.170 A 
ATOM      3  F   UNL d   1     -26.798  20.883  21.370  0.00  0.00    -0.202 F 
ATOM      4  C   UNL d   1     -24.911  22.224  21.864  0.00  0.00     0.170 A 
ATOM      5  F   UNL d   1     -24.170  21.521  20.978  0.00  0.00    -0.202 F 
ATOM      6  C   UNL d   1     -24.333  23.274  22.579  0.00  0.00     0.058 A 
ATOM      7  C   UNL d   1     -25.097  23.995  23.498  0.00  0.00     0.170 A 
ATOM      8  F   UNL d   1     -24.536  25.009  24.195  0.00  0.00    -0.202 F 
ATOM      9  C   UNL d   1     -26.428  23.677  23.692  0.00  0.00     0.170 A 
ATOM     10  F   UNL d   1     -27.168  24.379  24.577  0.00  0.00    -0.202 F 
ENDROOT
BRANCH   1  11
ATOM     11  C   UNL d   1     -28.431  22.280  23.189  0.00  0.00    -0.016 A 
ATOM     12  C   UNL d   1     -28.838  21.726  24.401  0.00  0.00     0.033 A 
ATOM     13  C   UNL d   1     -30.174  21.405  24.609  0.00  0.00     0.069 A 
ATOM     14  C   UNL d   1     -31.116  21.634  23.582  0.00  0.00     0.102 A 
ATOM     15  N   UNL d   1     -32.444  21.429  23.481  0.00  0.00    -0.233 NA
ATOM     16  C   UNL d   1     -30.690  22.188  22.363  0.00  0.00     0.064 A 
ATOM     17  C   UNL d   1     -32.862  21.812  22.307  0.00  0.00     0.101 A 
ATOM     18  C   UNL d   1     -34.290  21.736  21.832  0.00  0.00     0.091 C 
ATOM     19  N   UNL d   1     -31.822  22.288  21.575  0.00  0.00    -0.343 N 
ATOM     20  H   UNL d   1     -31.864  22.635  20.671  0.00  0.00     0.167 HD
ATOM     21  C   UNL d   1     -29.356  22.509  22.172  0.00  0.00     0.044 A 
BRANCH  13  22
ATOM     22  C   UNL d   1     -30.605  20.825  25.893  0.00  0.00     0.178 C 
ATOM     23  O   UNL d   1     -30.609  21.507  26.898  0.00  0.00    -0.646 OA
BRANCH  22  24
ATOM     24  O   UNL d   1     -30.996  19.535  25.953  0.00  0.00    -0.773 OA
ATOM     25  H   UNL d   1     -30.480  18.897  25.443  0.00  0.00     0.167 HD
ENDBRANCH  22  24
ENDBRANCH  13  22
ENDBRANCH   1  11
BRANCH   6  26
ATOM     26  C   UNL d   1     -22.907  23.621  22.367  0.00  0.00    -0.020 A 
ATOM     27  C   UNL d   1     -22.531  24.384  21.262  0.00  0.00     0.013 A 
ATOM     28  C   UNL d   1     -21.203  24.709  21.072  0.00  0.00     0.010 A 
ATOM     29  C   UNL d   1     -20.245  24.270  21.970  0.00  0.00    -0.030 A 
ATOM     30  C   UNL d   1     -20.613  23.513  23.067  0.00  0.00     0.010 A 
ATOM     31  C   UNL d   1     -21.939  23.187  23.270  0.00  0.00     0.013 A 
BRANCH  29  32
ATOM     32  C   UNL d   1     -18.796  24.623  21.754  0.00  0.00     0.311 C 
BRANCH  32  33
ATOM     33  N   UNL d   1     -18.245  25.206  22.984  0.00  0.00     0.098 N 
ATOM     34  C   UNL d   1     -16.900  25.747  22.754  0.00  0.00     0.351 C 
ATOM     35  C   UNL d   1     -16.301  26.212  24.084  0.00  0.00     0.269 C 
ATOM     36  C   UNL d   1     -17.205  27.284  24.698  0.00  0.00     0.082 C 
ATOM     37  F   UNL d   1     -15.028  26.747  23.862  0.00  0.00    -0.204 F 
ATOM     38  F   UNL d   1     -16.206  25.124  24.959  0.00  0.00    -0.204 F 
ATOM     39  C   UNL d   1     -18.613  26.710  24.882  0.00  0.00     0.036 C 
ATOM     40  C   UNL d   1     -19.144  26.231  23.530  0.00  0.00     0.273 C 
ENDBRANCH  32  33
ENDBRANCH  29  32
ENDBRANCH   6  26
TORSDOF 6
ENDMDL
