MODEL 1
REMARK VINA RESULT:      -9.8      0.000      0.000
REMARK  7 active torsions:
REMARK  status: ('A' for Active; 'I' for Inactive)
REMARK    1  A    between atoms: C_2  and  C_3 
REMARK    2  A    between atoms: C_3  and  C_4 
REMARK    3  A    between atoms: C_4  and  O_6 
REMARK    4  A    between atoms: O_6  and  C_7 
REMARK    5  A    between atoms: C_9  and  N_10 
REMARK    6  A    between atoms: C_23  and  C_24 
REMARK       I    between atoms: C_24  and  N_26 
REMARK    7  A    between atoms: N_26  and  C_27 
ROOT
ATOM      1  C   UNL d   1     -26.113  23.303  23.407  0.00  0.00     0.087 A 
ATOM      2  C   UNL d   1     -27.486  23.133  23.422  0.00  0.00     0.073 A 
ATOM      3  C   UNL d   1     -28.090  22.276  22.512  0.00  0.00     0.104 A 
ATOM      4  C   UNL d   1     -27.317  21.590  21.575  0.00  0.00     0.146 A 
ATOM      5  F   UNL d   1     -27.912  20.758  20.691  0.00  0.00    -0.204 F 
ATOM      6  C   UNL d   1     -25.952  21.757  21.548  0.00  0.00     0.064 A 
ATOM      7  C   UNL d   1     -25.335  22.618  22.462  0.00  0.00     0.068 A 
ENDROOT
BRANCH   7   8
ATOM      8  C   UNL d   1     -23.874  22.799  22.436  0.00  0.00     0.260 C 
ATOM      9  O   UNL d   1     -23.140  21.838  22.574  0.00  0.00    -0.267 OA
ATOM     10  N   UNL d   1     -23.350  24.027  22.258  0.00  0.00    -0.306 N 
ATOM     11  H   UNL d   1     -23.935  24.793  22.148  0.00  0.00     0.170 HD
BRANCH  10  12
ATOM     12  C   UNL d   1     -21.967  24.198  22.234  0.00  0.00     0.154 A 
ATOM     13  C   UNL d   1     -21.302  24.329  21.018  0.00  0.00     0.077 A 
ATOM     14  N   UNL d   1     -19.992  24.491  20.999  0.00  0.00    -0.253 NA
ATOM     15  C   UNL d   1     -22.076  24.290  19.726  0.00  0.00     0.074 C 
ATOM     16  C   UNL d   1     -19.312  24.527  22.132  0.00  0.00     0.048 A 
ATOM     17  C   UNL d   1     -19.970  24.396  23.342  0.00  0.00     0.145 A 
ATOM     18  C   UNL d   1     -17.817  24.711  22.106  0.00  0.00     0.072 C 
ATOM     19  N   UNL d   1     -21.282  24.235  23.368  0.00  0.00    -0.239 NA
ENDBRANCH  10  12
ENDBRANCH   7   8
BRANCH   1  20
ATOM     20  O   UNL d   1     -25.521  24.136  24.300  0.00  0.00    -0.345 OA
BRANCH  20  21
ATOM     21  C   UNL d   1     -25.843  25.525  24.205  0.00  0.00     0.124 C 
ATOM     22  C   UNL d   1     -26.304  26.037  25.571  0.00  0.00     0.040 C 
BRANCH  21  23
ATOM     23  C   UNL d   1     -24.607  26.306  23.757  0.00  0.00     0.032 C 
BRANCH  23  24
ATOM     24  C   UNL d   1     -23.604  26.379  24.911  0.00  0.00    -0.002 C 
ATOM     25  C   UNL d   1     -22.403  27.228  24.490  0.00  0.00     0.005 C 
ENDBRANCH  23  24
ENDBRANCH  21  23
ENDBRANCH  20  21
ENDBRANCH   1  20
BRANCH   3  26
ATOM     26  N   UNL d   1     -29.476  22.102  22.533  0.00  0.00    -0.178 N 
ATOM     27  C   UNL d   1     -30.225  21.774  23.609  0.00  0.00     0.351 A 
ATOM     28  N   UNL d   1     -31.506  21.734  23.207  0.00  0.00    -0.284 N 
ATOM     29  O   UNL d   1     -29.814  21.557  24.735  0.00  0.00    -0.244 OA
ATOM     30  C   UNL d   1     -31.545  22.006  21.855  0.00  0.00     0.131 A 
ATOM     31  C   UNL d   1     -32.692  21.479  24.031  0.00  0.00     0.135 C 
ATOM     32  N   UNL d   1     -30.347  22.241  21.442  0.00  0.00    -0.149 NA
ATOM     33  C   UNL d   1     -32.816  22.000  21.036  0.00  0.00     0.081 C 
ATOM     34  C   UNL d   1     -34.004  22.119  21.999  0.00  0.00     0.009 C 
ATOM     35  C   UNL d   1     -33.851  21.076  23.111  0.00  0.00     0.021 C 
ENDBRANCH   3  26
TORSDOF 7
ENDMDL
