MODEL 1
REMARK VINA RESULT:      -9.7      0.000      0.000
REMARK  9 active torsions:
REMARK  status: ('A' for Active; 'I' for Inactive)
REMARK    1  A    between atoms: C_2  and  C_3 
REMARK    2  A    between atoms: C_3  and  C_4 
REMARK    3  A    between atoms: C_4  and  O_6 
REMARK    4  A    between atoms: O_6  and  C_7 
REMARK    5  A    between atoms: C_9  and  N_10 
REMARK    6  A    between atoms: C_12  and  C_13 
REMARK    7  A    between atoms: C_22  and  C_23 
REMARK       I    between atoms: C_23  and  N_25 
REMARK    8  A    between atoms: N_25  and  C_26 
REMARK    9  A    between atoms: C_31  and  O_32 
ROOT
ATOM      1  C   UNL d   1     -26.403  23.120  23.310  0.00  0.00     0.087 A 
ATOM      2  C   UNL d   1     -27.770  22.975  23.475  0.00  0.00     0.073 A 
ATOM      3  C   UNL d   1     -28.494  22.175  22.602  0.00  0.00     0.104 A 
ATOM      4  C   UNL d   1     -27.849  21.513  21.558  0.00  0.00     0.146 A 
ATOM      5  F   UNL d   1     -28.560  20.735  20.712  0.00  0.00    -0.204 F 
ATOM      6  C   UNL d   1     -26.490  21.650  21.386  0.00  0.00     0.064 A 
ATOM      7  C   UNL d   1     -25.753  22.460  22.256  0.00  0.00     0.068 A 
ENDROOT
BRANCH   7   8
ATOM      8  C   UNL d   1     -24.300  22.615  22.072  0.00  0.00     0.259 C 
ATOM      9  O   UNL d   1     -23.599  21.632  21.919  0.00  0.00    -0.267 OA
ATOM     10  N   UNL d   1     -23.749  23.844  22.076  0.00  0.00    -0.320 N 
ATOM     11  H   UNL d   1     -24.295  24.620  22.275  0.00  0.00     0.169 HD
BRANCH  10  12
ATOM     12  C   UNL d   1     -22.386  24.001  21.790  0.00  0.00     0.068 A 
ATOM     13  C   UNL d   1     -21.984  24.506  20.556  0.00  0.00     0.092 A 
ATOM     14  C   UNL d   1     -20.635  24.666  20.283  0.00  0.00     0.039 A 
ATOM     15  C   UNL d   1     -19.691  24.311  21.229  0.00  0.00     0.003 A 
ATOM     16  C   UNL d   1     -20.089  23.804  22.452  0.00  0.00     0.002 A 
ATOM     17  C   UNL d   1     -21.433  23.647  22.734  0.00  0.00     0.032 A 
BRANCH  13  18
ATOM     18  O   UNL d   1     -22.914  24.849  19.625  0.00  0.00    -0.358 OA
ATOM     19  H   UNL d   1     -23.125  24.142  19.001  0.00  0.00     0.217 HD
ENDBRANCH  13  18
ENDBRANCH  10  12
ENDBRANCH   7   8
BRANCH   1  20
ATOM     20  O   UNL d   1     -25.694  23.903  24.163  0.00  0.00    -0.345 OA
BRANCH  20  21
ATOM     21  C   UNL d   1     -26.024  25.293  24.194  0.00  0.00     0.124 C 
ATOM     22  C   UNL d   1     -26.338  25.711  25.632  0.00  0.00     0.040 C 
BRANCH  21  23
ATOM     23  C   UNL d   1     -24.840  26.109  23.673  0.00  0.00     0.032 C 
BRANCH  23  24
ATOM     24  C   UNL d   1     -23.728  26.123  24.724  0.00  0.00    -0.002 C 
ATOM     25  C   UNL d   1     -22.526  26.902  24.186  0.00  0.00     0.005 C 
ENDBRANCH  23  24
ENDBRANCH  21  23
ENDBRANCH  20  21
ENDBRANCH   1  20
BRANCH   3  26
ATOM     26  N   UNL d   1     -29.873  22.031  22.771  0.00  0.00    -0.178 N 
ATOM     27  C   UNL d   1     -30.503  21.625  23.892  0.00  0.00     0.351 A 
ATOM     28  N   UNL d   1     -31.826  21.626  23.635  0.00  0.00    -0.289 N 
ATOM     29  O   UNL d   1     -29.975  21.316  24.945  0.00  0.00    -0.244 OA
ATOM     30  C   UNL d   1     -32.013  22.031  22.335  0.00  0.00     0.130 A 
ATOM     31  C   UNL d   1     -32.885  21.254  24.577  0.00  0.00     0.162 C 
ATOM     32  N   UNL d   1     -30.858  22.276  21.804  0.00  0.00    -0.149 NA
BRANCH  30  33
ATOM     33  C   UNL d   1     -33.344  22.167  21.642  0.00  0.00     0.076 C 
ATOM     34  C   UNL d   1     -33.820  20.788  21.178  0.00  0.00     0.013 C 
ENDBRANCH  30  33
ENDBRANCH   3  26
TORSDOF 9
ENDMDL
