MODEL 1
REMARK VINA RESULT:     -11.2      0.000      0.000
REMARK  7 active torsions:
REMARK  status: ('A' for Active; 'I' for Inactive)
REMARK    1  A    between atoms: C_3  and  C_4 
REMARK    2  A    between atoms: C_8  and  O_9 
REMARK    3  A    between atoms: O_9  and  C_10 
REMARK    4  A    between atoms: C_18  and  N_19 
REMARK    5  A    between atoms: N_19  and  C_20 
REMARK    6  A    between atoms: C_25  and  C_26 
REMARK    7  A    between atoms: C_26  and  O_28 
ROOT
ATOM      1  C   UNL d   1     -24.459  21.502  21.026  0.00  0.00     0.052 C 
ATOM      2  C   UNL d   1     -25.089  22.357  22.094  0.00  0.00    -0.010 A 
ATOM      3  C   UNL d   1     -24.463  23.533  22.505  0.00  0.00    -0.014 A 
ATOM      4  C   UNL d   1     -25.047  24.324  23.493  0.00  0.00     0.057 A 
ATOM      5  C   UNL d   1     -26.249  23.944  24.059  0.00  0.00     0.147 A 
ATOM      6  F   UNL d   1     -26.818  24.714  25.013  0.00  0.00    -0.204 F 
ATOM      7  C   UNL d   1     -26.870  22.769  23.651  0.00  0.00     0.112 A 
ATOM      8  C   UNL d   1     -26.287  21.978  22.666  0.00  0.00     0.152 A 
ATOM      9  F   UNL d   1     -26.894  20.839  22.267  0.00  0.00    -0.203 F 
ENDROOT
BRANCH   7  10
ATOM     10  N   UNL d   1     -28.085  22.384  24.229  0.00  0.00    -0.335 N 
ATOM     11  H   UNL d   1     -28.123  22.154  25.171  0.00  0.00     0.168 HD
BRANCH  10  12
ATOM     12  C   UNL d   1     -29.232  22.332  23.458  0.00  0.00     0.144 A 
ATOM     13  C   UNL d   1     -30.443  21.912  24.035  0.00  0.00     0.083 A 
ATOM     14  C   UNL d   1     -31.591  21.868  23.234  0.00  0.00     0.024 A 
ATOM     15  C   UNL d   1     -31.480  22.241  21.906  0.00  0.00     0.020 A 
ATOM     16  C   UNL d   1     -30.251  22.636  21.409  0.00  0.00     0.119 A 
ATOM     17  N   UNL d   1     -29.183  22.677  22.181  0.00  0.00    -0.242 NA
BRANCH  13  18
ATOM     18  C   UNL d   1     -30.505  21.527  25.454  0.00  0.00     0.180 C 
ATOM     19  O   UNL d   1     -31.425  21.913  26.149  0.00  0.00    -0.646 OA
BRANCH  18  20
ATOM     20  O   UNL d   1     -29.543  20.746  25.984  0.00  0.00    -0.773 OA
ATOM     21  H   UNL d   1     -29.110  20.119  25.388  0.00  0.00     0.167 HD
ENDBRANCH  18  20
ENDBRANCH  13  18
ENDBRANCH  10  12
ENDBRANCH   7  10
BRANCH   3  22
ATOM     22  C   UNL d   1     -23.175  23.942  21.893  0.00  0.00    -0.023 A 
ATOM     23  C   UNL d   1     -21.991  23.837  22.619  0.00  0.00     0.049 A 
ATOM     24  C   UNL d   1     -20.791  24.215  22.040  0.00  0.00     0.079 A 
ATOM     25  C   UNL d   1     -20.772  24.708  20.742  0.00  0.00     0.037 A 
ATOM     26  C   UNL d   1     -21.948  24.817  20.022  0.00  0.00     0.004 A 
ATOM     27  C   UNL d   1     -23.147  24.438  20.590  0.00  0.00     0.012 A 
BRANCH  24  28
ATOM     28  O   UNL d   1     -19.634  24.109  22.744  0.00  0.00    -0.255 OA
BRANCH  28  29
ATOM     29  C   UNL d   1     -19.194  25.272  23.448  0.00  0.00     0.530 C 
ATOM     30  F   UNL d   1     -20.255  26.176  23.564  0.00  0.00    -0.144 F 
ATOM     31  F   UNL d   1     -18.751  24.906  24.724  0.00  0.00    -0.144 F 
ATOM     32  F   UNL d   1     -18.144  25.874  22.745  0.00  0.00    -0.144 F 
ENDBRANCH  28  29
ENDBRANCH  24  28
ENDBRANCH   3  22
TORSDOF 7
ENDMDL
