MODEL 1
REMARK VINA RESULT:     -10.8      0.000      0.000
REMARK  6 active torsions:
REMARK  status: ('A' for Active; 'I' for Inactive)
REMARK    1  A    between atoms: C_2  and  O_3 
REMARK    2  A    between atoms: C_2  and  C_31 
REMARK    3  A    between atoms: O_3  and  C_4 
REMARK    4  A    between atoms: C_6  and  N_7 
REMARK    5  A    between atoms: C_20  and  C_21 
REMARK       I    between atoms: C_21  and  N_23 
REMARK    6  A    between atoms: N_23  and  C_24 
ROOT
ATOM      1  C   UNL d   1     -24.667  23.401  22.644  0.00  0.00     0.087 A 
ATOM      2  C   UNL d   1     -25.928  22.855  22.808  0.00  0.00     0.073 A 
ATOM      3  C   UNL d   1     -26.789  23.370  23.768  0.00  0.00     0.105 A 
ATOM      4  C   UNL d   1     -26.385  24.432  24.578  0.00  0.00     0.146 A 
ATOM      5  F   UNL d   1     -27.226  24.925  25.513  0.00  0.00    -0.204 F 
ATOM      6  C   UNL d   1     -25.130  24.979  24.425  0.00  0.00     0.064 A 
ATOM      7  C   UNL d   1     -24.259  24.469  23.457  0.00  0.00     0.068 A 
ENDROOT
BRANCH   7   8
ATOM      8  C   UNL d   1     -22.916  25.052  23.292  0.00  0.00     0.259 C 
ATOM      9  O   UNL d   1     -22.767  26.052  22.615  0.00  0.00    -0.267 OA
ATOM     10  N   UNL d   1     -21.854  24.478  23.889  0.00  0.00    -0.320 N 
ATOM     11  H   UNL d   1     -21.980  23.716  24.476  0.00  0.00     0.169 HD
BRANCH  10  12
ATOM     12  C   UNL d   1     -20.567  24.980  23.663  0.00  0.00     0.073 A 
ATOM     13  C   UNL d   1     -19.781  24.452  22.645  0.00  0.00     0.143 A 
ATOM     14  C   UNL d   1     -18.513  24.956  22.421  0.00  0.00     0.044 A 
ATOM     15  F   UNL d   1     -20.258  23.452  21.872  0.00  0.00    -0.204 F 
ATOM     16  C   UNL d   1     -18.022  25.976  23.216  0.00  0.00     0.003 A 
ATOM     17  C   UNL d   1     -18.800  26.499  24.233  0.00  0.00     0.002 A 
ATOM     18  C   UNL d   1     -20.070  26.004  24.458  0.00  0.00     0.033 A 
ENDBRANCH  10  12
ENDBRANCH   7   8
BRANCH   1  19
ATOM     19  O   UNL d   1     -23.826  22.902  21.703  0.00  0.00    -0.336 OA
BRANCH  19  20
ATOM     20  C   UNL d   1     -23.963  23.412  20.375  0.00  0.00     0.232 C 
ATOM     21  C   UNL d   1     -22.596  23.864  19.859  0.00  0.00     0.049 C 
BRANCH  20  22
ATOM     22  C   UNL d   1     -24.516  22.315  19.463  0.00  0.00     0.413 C 
ATOM     23  F   UNL d   1     -24.587  22.792  18.150  0.00  0.00    -0.168 F 
ATOM     24  F   UNL d   1     -23.671  21.201  19.509  0.00  0.00    -0.168 F 
ATOM     25  F   UNL d   1     -25.794  21.948  19.896  0.00  0.00    -0.168 F 
ENDBRANCH  20  22
ENDBRANCH  19  20
ENDBRANCH   1  19
BRANCH   3  26
ATOM     26  N   UNL d   1     -28.062  22.820  23.926  0.00  0.00    -0.177 N 
ATOM     27  C   UNL d   1     -28.468  22.035  24.944  0.00  0.00     0.355 A 
ATOM     28  N   UNL d   1     -29.760  21.714  24.729  0.00  0.00    -0.256 N 
ATOM     29  O   UNL d   1     -27.789  21.678  25.891  0.00  0.00    -0.244 OA
ATOM     30  C   UNL d   1     -30.165  22.313  23.551  0.00  0.00     0.158 A 
ATOM     31  C   UNL d   1     -30.646  20.947  25.448  0.00  0.00     0.103 A 
ATOM     32  N   UNL d   1     -29.149  22.984  23.057  0.00  0.00    -0.144 NA
ATOM     33  C   UNL d   1     -31.494  22.131  23.093  0.00  0.00     0.053 A 
ATOM     34  C   UNL d   1     -32.349  21.375  23.823  0.00  0.00     0.005 A 
ATOM     35  C   UNL d   1     -31.908  20.770  25.018  0.00  0.00     0.018 A 
ENDBRANCH   3  26
TORSDOF 6
ENDMDL
