MODEL 1
REMARK VINA RESULT:     -10.5      0.000      0.000
REMARK  9 active torsions:
REMARK  status: ('A' for Active; 'I' for Inactive)
REMARK    1  A    between atoms: C_2  and  C_17 
REMARK    2  A    between atoms: C_3  and  C_4 
REMARK    3  A    between atoms: C_4  and  C_5 
REMARK    4  A    between atoms: C_6  and  O_7 
REMARK    5  A    between atoms: C_12  and  C_13 
REMARK    6  A    between atoms: C_15  and  O_16 
REMARK    7  A    between atoms: C_17  and  C_18 
REMARK    8  A    between atoms: C_18  and  C_19 
REMARK    9  A    between atoms: C_27  and  O_29 
ROOT
ATOM      1  C   UNL d   1     -26.978  22.621  26.316  0.00  0.00     0.043 C 
ATOM      2  C   UNL d   1     -27.348  22.999  24.904  0.00  0.00    -0.087 C 
ATOM      3  C   UNL d   1     -28.466  22.561  24.381  0.00  0.00    -0.020 C 
ENDROOT
BRANCH   2   4
ATOM      4  C   UNL d   1     -26.432  23.879  24.095  0.00  0.00     0.034 C 
BRANCH   4   5
ATOM      5  C   UNL d   1     -25.219  23.068  23.636  0.00  0.00     0.013 C 
BRANCH   5   6
ATOM      6  C   UNL d   1     -24.945  23.353  22.157  0.00  0.00     0.035 C 
ATOM      7  C   UNL d   1     -25.075  22.056  21.356  0.00  0.00     0.059 C 
ATOM      8  C   UNL d   1     -24.891  22.347  19.866  0.00  0.00     0.045 C 
ATOM      9  C   UNL d   1     -26.462  21.452  21.589  0.00  0.00     0.046 C 
ATOM     10  C   UNL d   1     -23.470  22.866  19.621  0.00  0.00     0.082 C 
ATOM     11  C   UNL d   1     -23.230  24.056  20.522  0.00  0.00     0.135 C 
ATOM     12  C   UNL d   1     -23.526  23.909  21.999  0.00  0.00     0.019 C 
ATOM     13  O   UNL d   1     -22.813  25.098  20.076  0.00  0.00    -0.297 OA
ATOM     14  C   UNL d   1     -23.430  25.275  22.680  0.00  0.00     0.023 C 
ATOM     15  C   UNL d   1     -22.522  22.946  22.635  0.00  0.00     0.023 C 
BRANCH   7  16
ATOM     16  O   UNL d   1     -24.076  21.129  21.786  0.00  0.00    -0.390 OA
ATOM     17  H   UNL d   1     -23.323  21.540  22.231  0.00  0.00     0.210 HD
ENDBRANCH   7  16
ENDBRANCH   5   6
ENDBRANCH   4   5
ENDBRANCH   2   4
BRANCH   3  18
ATOM     18  C   UNL d   1     -29.434  21.769  25.223  0.00  0.00     0.072 C 
BRANCH  18  19
ATOM     19  C   UNL d   1     -30.713  21.559  24.456  0.00  0.00     0.014 A 
ATOM     20  C   UNL d   1     -30.808  21.979  23.139  0.00  0.00     0.088 A 
ATOM     21  C   UNL d   1     -32.005  21.776  22.430  0.00  0.00     0.043 A 
ATOM     22  C   UNL d   1     -33.092  21.160  23.065  0.00  0.00    -0.021 A 
ATOM     23  C   UNL d   1     -32.985  20.756  24.365  0.00  0.00     0.074 A 
ATOM     24  C   UNL d   1     -34.379  20.943  22.313  0.00  0.00     0.051 C 
ATOM     25  C   UNL d   1     -31.799  20.952  25.068  0.00  0.00     0.097 A 
ATOM     26 CL   UNL d   1     -34.335  19.992  25.145  0.00  0.00    -0.081 Cl
BRANCH  20  27
ATOM     27  O   UNL d   1     -29.751  22.578  22.537  0.00  0.00    -0.359 OA
ATOM     28  H   UNL d   1     -29.358  23.294  23.054  0.00  0.00     0.217 HD
ENDBRANCH  20  27
BRANCH  21  29
ATOM     29  C   UNL d   1     -32.116  22.210  21.035  0.00  0.00     0.273 C 
ATOM     30  O   UNL d   1     -31.161  22.116  20.293  0.00  0.00    -0.301 OA
ENDBRANCH  21  29
BRANCH  25  31
ATOM     31  O   UNL d   1     -31.705  20.545  26.359  0.00  0.00    -0.358 OA
ATOM     32  H   UNL d   1     -31.774  19.587  26.476  0.00  0.00     0.217 HD
ENDBRANCH  25  31
ENDBRANCH  18  19
ENDBRANCH   3  18
TORSDOF 9
ENDMDL
