MODEL 1
REMARK VINA RESULT:     -10.5      0.000      0.000
REMARK  4 active torsions:
REMARK  status: ('A' for Active; 'I' for Inactive)
REMARK    1  A    between atoms: O_2  and  C_3 
REMARK    2  A    between atoms: C_8  and  N_9 
REMARK       I    between atoms: N_9  and  C_10 
REMARK    3  A    between atoms: C_10  and  C_12 
REMARK    4  A    between atoms: C_15  and  C_16 
ROOT
ATOM      1  N   UNL d   1     -28.130  23.010  23.247  0.00  0.00    -0.320 N 
ATOM      2  C   UNL d   1     -27.117  22.250  22.788  0.00  0.00     0.256 C 
ATOM      3  O   UNL d   1     -27.307  21.080  22.518  0.00  0.00    -0.267 OA
ATOM      4  H   UNL d   1     -27.963  23.925  23.524  0.00  0.00     0.169 HD
ENDROOT
BRANCH   1   5
ATOM      5  C   UNL d   1     -29.424  22.479  23.324  0.00  0.00     0.069 A 
ATOM      6  C   UNL d   1     -29.891  21.941  24.521  0.00  0.00     0.095 A 
ATOM      7  C   UNL d   1     -31.170  21.419  24.581  0.00  0.00     0.046 A 
ATOM      8  C   UNL d   1     -31.992  21.429  23.461  0.00  0.00    -0.049 A 
ATOM      9  C   UNL d   1     -33.370  20.837  23.600  0.00  0.00     0.039 C 
ATOM     10  C   UNL d   1     -31.531  21.964  22.278  0.00  0.00    -0.050 A 
ATOM     11  C   UNL d   1     -34.272  21.302  22.460  0.00  0.00     0.005 C 
ATOM     12  C   UNL d   1     -33.548  21.043  21.133  0.00  0.00     0.005 C 
ATOM     13  C   UNL d   1     -32.373  22.015  21.029  0.00  0.00     0.039 C 
ATOM     14  C   UNL d   1     -30.248  22.492  22.212  0.00  0.00     0.040 A 
BRANCH   6  15
ATOM     15  O   UNL d   1     -29.095  21.929  25.623  0.00  0.00    -0.354 OA
ATOM     16  C   UNL d   1     -29.592  21.246  26.775  0.00  0.00     0.210 C 
ENDBRANCH   6  15
ENDBRANCH   1   5
BRANCH   2  17
ATOM     17  C   UNL d   1     -25.771  22.839  22.614  0.00  0.00     0.032 A 
ATOM     18  C   UNL d   1     -24.921  22.362  21.616  0.00  0.00     0.017 A 
ATOM     19  C   UNL d   1     -23.667  22.917  21.459  0.00  0.00     0.009 A 
ATOM     20  C   UNL d   1     -23.255  23.947  22.285  0.00  0.00    -0.051 A 
ATOM     21  C   UNL d   1     -24.091  24.420  23.281  0.00  0.00     0.009 A 
ATOM     22  C   UNL d   1     -25.347  23.875  23.448  0.00  0.00     0.017 A 
BRANCH  20  23
ATOM     23  C   UNL d   1     -21.886  24.550  22.105  0.00  0.00    -0.024 C 
ATOM     24  C   UNL d   1     -21.798  25.861  22.888  0.00  0.00     0.019 C 
ATOM     25  C   UNL d   1     -20.826  23.575  22.621  0.00  0.00     0.019 C 
ATOM     26  C   UNL d   1     -21.643  24.828  20.619  0.00  0.00     0.019 C 
ENDBRANCH  20  23
ENDBRANCH   2  17
TORSDOF 4
ENDMDL
