MODEL 1
REMARK VINA RESULT:      -9.7      0.000      0.000
REMARK  3 active torsions:
REMARK  status: ('A' for Active; 'I' for Inactive)
REMARK    1  A    between atoms: C_8  and  N_9 
REMARK    2  A    between atoms: N_9  and  C_10 
REMARK    3  A    between atoms: C_11  and  O_12 
ROOT
ATOM      1  C   UNL d   1     -29.226  22.579  23.522  0.00  0.00     0.121 A 
ATOM      2  C   UNL d   1     -28.899  22.043  24.726  0.00  0.00     0.148 A 
ATOM      3  C   UNL d   1     -29.874  21.245  25.482  0.00  0.00     0.218 A 
ATOM      4  O   UNL d   1     -29.570  20.776  26.562  0.00  0.00    -0.284 OA
ATOM      5  C   UNL d   1     -31.225  21.009  24.925  0.00  0.00     0.031 A 
ATOM      6  C   UNL d   1     -32.158  20.252  25.622  0.00  0.00     0.016 A 
ATOM      7  C   UNL d   1     -33.418  20.043  25.081  0.00  0.00     0.001 A 
ATOM      8  C   UNL d   1     -33.751  20.581  23.853  0.00  0.00     0.001 A 
ATOM      9  C   UNL d   1     -32.830  21.339  23.146  0.00  0.00     0.016 A 
ATOM     10  C   UNL d   1     -31.564  21.557  23.675  0.00  0.00     0.031 A 
ATOM     11  C   UNL d   1     -30.564  22.362  22.939  0.00  0.00     0.212 A 
ATOM     12  O   UNL d   1     -30.843  22.842  21.858  0.00  0.00    -0.285 OA
ENDROOT
BRANCH   1  13
ATOM     13  N   UNL d   1     -28.290  23.333  22.831  0.00  0.00    -0.350 N 
ATOM     14  H   UNL d   1     -28.508  24.234  22.545  0.00  0.00     0.166 HD
BRANCH  13  15
ATOM     15  C   UNL d   1     -27.034  22.796  22.545  0.00  0.00     0.044 A 
ATOM     16  C   UNL d   1     -25.899  23.319  23.152  0.00  0.00    -0.035 A 
ATOM     17  C   UNL d   1     -26.021  24.465  24.122  0.00  0.00     0.050 C 
ATOM     18  C   UNL d   1     -24.658  22.781  22.870  0.00  0.00     0.009 A 
ATOM     19  C   UNL d   1     -24.544  21.729  21.981  0.00  0.00     0.001 A 
ATOM     20  C   UNL d   1     -25.671  21.210  21.369  0.00  0.00     0.009 A 
ATOM     21  C   UNL d   1     -26.915  21.743  21.645  0.00  0.00    -0.035 A 
ATOM     22  C   UNL d   1     -28.142  21.178  20.978  0.00  0.00     0.050 C 
ENDBRANCH  13  15
ENDBRANCH   1  13
BRANCH   2  23
ATOM     23  O   UNL d   1     -27.660  22.252  25.240  0.00  0.00    -0.355 OA
ATOM     24  H   UNL d   1     -27.335  21.526  25.789  0.00  0.00     0.218 HD
ENDBRANCH   2  23
TORSDOF 3
ENDMDL
