MODEL 1
REMARK VINA RESULT:     -11.4      0.000      0.000
REMARK  6 active torsions:
REMARK  status: ('A' for Active; 'I' for Inactive)
REMARK    1  A    between atoms: C_5  and  N_6 
REMARK    2  A    between atoms: N_6  and  C_7 
REMARK    3  A    between atoms: C_10  and  C_11 
REMARK    4  A    between atoms: C_15  and  C_16 
REMARK       I    between atoms: C_16  and  N_18 
REMARK    5  A    between atoms: C_25  and  C_26 
REMARK    6  A    between atoms: C_26  and  O_28 
ROOT
ATOM      1  C   UNL d   1     -27.336  22.429  23.787  0.00  0.00     0.050 A 
ATOM      2  C   UNL d   1     -26.759  23.621  24.208  0.00  0.00     0.146 A 
ATOM      3  N   UNL d   1     -25.622  24.039  23.691  0.00  0.00    -0.258 NA
ATOM      4  C   UNL d   1     -24.986  23.345  22.755  0.00  0.00     0.072 A 
ATOM      5  C   UNL d   1     -25.505  22.141  22.285  0.00  0.00    -0.030 A 
ATOM      6  C   UNL d   1     -24.778  21.359  21.222  0.00  0.00     0.050 C 
ATOM      7  C   UNL d   1     -26.700  21.674  22.802  0.00  0.00     0.040 A 
ENDROOT
BRANCH   1   8
ATOM      8  N   UNL d   1     -28.543  21.993  24.341  0.00  0.00    -0.354 N 
ATOM      9  H   UNL d   1     -28.572  21.689  25.261  0.00  0.00     0.166 HD
BRANCH   8  10
ATOM     10  C   UNL d   1     -29.700  21.994  23.573  0.00  0.00     0.049 A 
ATOM     11  C   UNL d   1     -29.653  22.389  22.241  0.00  0.00     0.031 A 
ATOM     12  C   UNL d   1     -30.803  22.383  21.478  0.00  0.00     0.009 A 
ATOM     13  C   UNL d   1     -32.013  21.994  22.033  0.00  0.00    -0.061 A 
ATOM     14  C   UNL d   1     -33.260  22.000  21.188  0.00  0.00     0.048 C 
ATOM     15  C   UNL d   1     -32.079  21.603  23.352  0.00  0.00     0.027 A 
ATOM     16  C   UNL d   1     -30.923  21.599  24.137  0.00  0.00     0.064 A 
BRANCH  16  17
ATOM     17  C   UNL d   1     -30.988  21.182  25.549  0.00  0.00     0.178 C 
ATOM     18  O   UNL d   1     -31.725  21.763  26.322  0.00  0.00    -0.646 OA
BRANCH  17  19
ATOM     19  O   UNL d   1     -30.230  20.155  25.983  0.00  0.00    -0.773 OA
ATOM     20  H   UNL d   1     -30.560  19.262  25.808  0.00  0.00     0.167 HD
ENDBRANCH  17  19
ENDBRANCH  16  17
ENDBRANCH   8  10
ENDBRANCH   1   8
BRANCH   4  21
ATOM     21  C   UNL d   1     -23.708  23.858  22.205  0.00  0.00    -0.006 A 
ATOM     22  C   UNL d   1     -22.669  24.206  23.062  0.00  0.00     0.030 A 
ATOM     23  C   UNL d   1     -21.471  24.686  22.538  0.00  0.00     0.033 A 
ATOM     24  C   UNL d   1     -21.322  24.818  21.156  0.00  0.00     0.017 A 
ATOM     25  C   UNL d   1     -22.356  24.471  20.311  0.00  0.00     0.002 A 
ATOM     26  C   UNL d   1     -23.543  23.989  20.826  0.00  0.00     0.014 A 
BRANCH  23  27
ATOM     27  C   UNL d   1     -20.363  25.058  23.442  0.00  0.00     0.253 C 
ATOM     28  O   UNL d   1     -19.353  24.381  23.478  0.00  0.00    -0.267 OA
ATOM     29  N   UNL d   1     -20.470  26.149  24.227  0.00  0.00    -0.357 N 
ATOM     30  C   UNL d   1     -19.309  26.624  24.984  0.00  0.00     0.152 C 
ATOM     31  C   UNL d   1     -21.749  26.858  24.325  0.00  0.00     0.152 C 
ENDBRANCH  23  27
ENDBRANCH   4  21
TORSDOF 6
ENDMDL
