MODEL 1
REMARK VINA RESULT:      -8.4      0.000      0.000
REMARK  4 active torsions:
REMARK  status: ('A' for Active; 'I' for Inactive)
REMARK    1  A    between atoms: C_2  and  C_4 
REMARK    2  A    between atoms: C_6  and  N_7 
REMARK    3  A    between atoms: N_7  and  C_8 
REMARK    4  A    between atoms: C_11  and  C_12 
ROOT
ATOM      1  N   UNL d   1     -28.574  22.280  24.583  0.00  0.00    -0.335 N 
ATOM      2  H   UNL d   1     -28.623  22.062  25.527  0.00  0.00     0.168 HD
ENDROOT
BRANCH   1   3
ATOM      3  C   UNL d   1     -29.703  22.194  23.798  0.00  0.00     0.172 A 
ATOM      4  S   UNL d   1     -31.281  21.907  24.389  0.00  0.00    -0.046 SA
ATOM      5  C   UNL d   1     -31.922  21.973  22.749  0.00  0.00     0.078 A 
ATOM      6  C   UNL d   1     -30.869  22.208  21.899  0.00  0.00     0.054 A 
ATOM      7  N   UNL d   1     -29.715  22.317  22.500  0.00  0.00    -0.228 NA
ATOM      8  C   UNL d   1     -31.031  22.323  20.404  0.00  0.00     0.072 C 
BRANCH   5   9
ATOM      9  C   UNL d   1     -33.270  21.814  22.377  0.00  0.00     0.164 C 
ATOM     10  C   UNL d   1     -33.827  20.434  22.140  0.00  0.00     0.097 C 
ATOM     11  O   UNL d   1     -33.983  22.788  22.247  0.00  0.00    -0.292 OA
ENDBRANCH   5   9
ENDBRANCH   1   3
BRANCH   1  12
ATOM     12  C   UNL d   1     -27.361  22.683  24.021  0.00  0.00     0.034 A 
ATOM     13  C   UNL d   1     -26.777  21.931  23.010  0.00  0.00     0.030 A 
ATOM     14  C   UNL d   1     -25.577  22.333  22.457  0.00  0.00     0.010 A 
ATOM     15  C   UNL d   1     -24.957  23.484  22.908  0.00  0.00    -0.051 A 
ATOM     16  C   UNL d   1     -25.535  24.235  23.914  0.00  0.00     0.010 A 
ATOM     17  C   UNL d   1     -26.737  23.842  24.468  0.00  0.00     0.030 A 
BRANCH  15  18
ATOM     18  C   UNL d   1     -23.648  23.920  22.301  0.00  0.00    -0.024 C 
ATOM     19  C   UNL d   1     -22.499  23.158  22.965  0.00  0.00     0.019 C 
ATOM     20  C   UNL d   1     -23.658  23.623  20.801  0.00  0.00     0.019 C 
ATOM     21  C   UNL d   1     -23.459  25.423  22.522  0.00  0.00     0.019 C 
ENDBRANCH  15  18
ENDBRANCH   1  12
TORSDOF 4
ENDMDL
