MODEL 1
REMARK VINA RESULT:     -10.6      0.000      0.000
REMARK  3 active torsions:
REMARK  status: ('A' for Active; 'I' for Inactive)
REMARK       I    between atoms: C_2  and  N_3 
REMARK    1  A    between atoms: C_2  and  C_20 
REMARK    2  A    between atoms: N_3  and  C_4 
REMARK    3  A    between atoms: N_12  and  C_13 
ROOT
ATOM      1  C   UNL d   1     -27.155  22.328  22.099  0.00  0.00     0.121 C 
ATOM      2  C   UNL d   1     -26.491  21.240  21.246  0.00  0.00     0.030 C 
ATOM      3  C   UNL d   1     -25.429  21.875  20.343  0.00  0.00     0.008 C 
ATOM      4  C   UNL d   1     -24.242  22.336  21.197  0.00  0.00     0.060 C 
ATOM      5  C   UNL d   1     -24.773  23.151  22.349  0.00  0.00     0.046 A 
ATOM      6  C   UNL d   1     -26.071  23.150  22.749  0.00  0.00     0.008 A 
ATOM      7  C   UNL d   1     -26.188  24.018  23.832  0.00  0.00     0.150 A 
ATOM      8  N   UNL d   1     -25.005  24.527  24.078  0.00  0.00    -0.179 NA
ATOM      9  N   UNL d   1     -24.096  23.992  23.153  0.00  0.00    -0.235 N 
ENDROOT
BRANCH   1  10
ATOM     10  N   UNL d   1     -27.989  21.705  23.131  0.00  0.00    -0.347 N 
ATOM     11  C   UNL d   1     -29.231  22.170  23.365  0.00  0.00     0.272 C 
ATOM     12  O   UNL d   1     -29.661  23.107  22.719  0.00  0.00    -0.266 OA
ATOM     13  H   UNL d   1     -27.646  20.957  23.646  0.00  0.00     0.163 HD
BRANCH  11  14
ATOM     14  C   UNL d   1     -30.069  21.544  24.402  0.00  0.00     0.148 A 
ATOM     15  C   UNL d   1     -31.359  21.148  24.263  0.00  0.00     0.047 A 
ATOM     16  N   UNL d   1     -31.749  20.627  25.453  0.00  0.00    -0.343 N 
ATOM     17  C   UNL d   1     -32.239  21.242  23.044  0.00  0.00     0.060 C 
ATOM     18  C   UNL d   1     -30.698  20.709  26.302  0.00  0.00     0.210 A 
ATOM     19  C   UNL d   1     -33.084  20.084  25.722  0.00  0.00     0.130 C 
ATOM     20  N   UNL d   1     -29.691  21.251  25.675  0.00  0.00    -0.236 NA
ATOM     21  C   UNL d   1     -34.047  20.587  24.640  0.00  0.00     0.021 C 
ATOM     22  C   UNL d   1     -33.450  20.322  23.255  0.00  0.00     0.008 C 
ENDBRANCH  11  14
ENDBRANCH   1  10
BRANCH   9  23
ATOM     23  C   UNL d   1     -22.725  24.281  23.080  0.00  0.00     0.097 A 
ATOM     24  C   UNL d   1     -22.248  25.146  22.103  0.00  0.00     0.145 A 
ATOM     25  C   UNL d   1     -20.895  25.432  22.036  0.00  0.00     0.045 A 
ATOM     26  F   UNL d   1     -23.102  25.711  21.222  0.00  0.00    -0.204 F 
ATOM     27  C   UNL d   1     -20.020  24.850  22.934  0.00  0.00     0.003 A 
ATOM     28  C   UNL d   1     -20.493  23.985  23.902  0.00  0.00     0.002 A 
ATOM     29  C   UNL d   1     -21.842  23.698  23.978  0.00  0.00     0.035 A 
ENDBRANCH   9  23
TORSDOF 3
ENDMDL
