MODEL 1
REMARK VINA RESULT:     -12.6      0.000      0.000
REMARK  6 active torsions:
REMARK  status: ('A' for Active; 'I' for Inactive)
REMARK    1  A    between atoms: C_4  and  C_5 
REMARK    2  A    between atoms: C_5  and  O_7 
REMARK    3  A    between atoms: C_10  and  C_11 
REMARK    4  A    between atoms: C_16  and  C_17 
REMARK    5  A    between atoms: C_20  and  C_21 
REMARK    6  A    between atoms: C_21  and  N_22 
ROOT
ATOM      1  C   UNL d   1     -27.466  22.404  23.109  0.00  0.00     0.093 A 
ATOM      2  C   UNL d   1     -26.713  21.749  22.129  0.00  0.00     0.173 A 
ATOM      3  F   UNL d   1     -27.273  20.763  21.393  0.00  0.00    -0.202 F 
ATOM      4  C   UNL d   1     -25.399  22.113  21.910  0.00  0.00     0.170 A 
ATOM      5  F   UNL d   1     -24.674  21.484  20.960  0.00  0.00    -0.202 F 
ATOM      6  C   UNL d   1     -24.818  23.128  22.674  0.00  0.00     0.058 A 
ATOM      7  C   UNL d   1     -25.567  23.779  23.656  0.00  0.00     0.170 A 
ATOM      8  F   UNL d   1     -25.004  24.761  24.394  0.00  0.00    -0.202 F 
ATOM      9  C   UNL d   1     -26.882  23.420  23.874  0.00  0.00     0.173 A 
ATOM     10  F   UNL d   1     -27.607  24.051  24.825  0.00  0.00    -0.202 F 
ENDROOT
BRANCH   1  11
ATOM     11  C   UNL d   1     -28.872  22.018  23.342  0.00  0.00     0.145 A 
ATOM     12  N   UNL d   1     -29.844  22.139  22.466  0.00  0.00    -0.227 NA
ATOM     13  C   UNL d   1     -30.994  21.693  23.000  0.00  0.00     0.102 A 
ATOM     14  C   UNL d   1     -32.316  21.594  22.511  0.00  0.00     0.069 A 
ATOM     15  C   UNL d   1     -30.713  21.268  24.311  0.00  0.00     0.064 A 
ATOM     16  C   UNL d   1     -33.314  21.074  23.334  0.00  0.00     0.027 A 
ATOM     17  C   UNL d   1     -33.015  20.659  24.617  0.00  0.00    -0.059 A 
ATOM     18  C   UNL d   1     -34.105  20.099  25.494  0.00  0.00     0.048 C 
ATOM     19  C   UNL d   1     -31.724  20.751  25.105  0.00  0.00     0.038 A 
ATOM     20  N   UNL d   1     -29.360  21.481  24.501  0.00  0.00    -0.338 N 
ATOM     21  H   UNL d   1     -28.853  21.287  25.305  0.00  0.00     0.167 HD
BRANCH  14  22
ATOM     22  C   UNL d   1     -32.637  22.038  21.144  0.00  0.00     0.178 C 
ATOM     23  O   UNL d   1     -33.787  22.283  20.840  0.00  0.00    -0.646 OA
BRANCH  22  24
ATOM     24  O   UNL d   1     -31.654  22.172  20.231  0.00  0.00    -0.773 OA
ATOM     25  H   UNL d   1     -31.803  22.807  19.516  0.00  0.00     0.167 HD
ENDBRANCH  22  24
ENDBRANCH  14  22
ENDBRANCH   1  11
BRANCH   6  26
ATOM     26  C   UNL d   1     -23.407  23.515  22.441  0.00  0.00    -0.020 A 
ATOM     27  C   UNL d   1     -22.405  23.052  23.294  0.00  0.00     0.013 A 
ATOM     28  C   UNL d   1     -21.092  23.415  23.071  0.00  0.00     0.010 A 
ATOM     29  C   UNL d   1     -20.769  24.236  22.006  0.00  0.00    -0.030 A 
ATOM     30  C   UNL d   1     -21.759  24.698  21.157  0.00  0.00     0.010 A 
ATOM     31  C   UNL d   1     -23.074  24.337  21.366  0.00  0.00     0.013 A 
BRANCH  29  32
ATOM     32  C   UNL d   1     -19.334  24.629  21.770  0.00  0.00     0.311 C 
BRANCH  32  33
ATOM     33  N   UNL d   1     -18.752  25.137  23.020  0.00  0.00     0.092 N 
ATOM     34  C   UNL d   1     -19.629  26.140  23.639  0.00  0.00     0.272 C 
ATOM     35  C   UNL d   1     -19.065  26.539  25.004  0.00  0.00     0.030 C 
ATOM     36  C   UNL d   1     -17.655  27.109  24.823  0.00  0.00     0.003 C 
ATOM     37  C   UNL d   1     -16.776  26.061  24.132  0.00  0.00     0.030 C 
ATOM     38  C   UNL d   1     -17.405  25.677  22.792  0.00  0.00     0.272 C 
ENDBRANCH  32  33
ENDBRANCH  29  32
ENDBRANCH   6  26
TORSDOF 6
ENDMDL
