MODEL 1
REMARK VINA RESULT:     -10.4      0.000      0.000
REMARK  6 active torsions:
REMARK  status: ('A' for Active; 'I' for Inactive)
REMARK    1  A    between atoms: C_2  and  O_3 
REMARK    2  A    between atoms: C_2  and  C_30 
REMARK    3  A    between atoms: O_3  and  C_4 
REMARK    4  A    between atoms: C_6  and  N_7 
REMARK    5  A    between atoms: C_20  and  C_21 
REMARK       I    between atoms: C_21  and  N_23 
REMARK    6  A    between atoms: N_23  and  C_24 
ROOT
ATOM      1  C   UNL d   1     -24.673  23.453  22.710  0.00  0.00     0.087 A 
ATOM      2  C   UNL d   1     -25.884  22.843  22.988  0.00  0.00     0.073 A 
ATOM      3  C   UNL d   1     -26.731  23.385  23.946  0.00  0.00     0.104 A 
ATOM      4  C   UNL d   1     -26.368  24.548  24.626  0.00  0.00     0.146 A 
ATOM      5  F   UNL d   1     -27.200  25.073  25.552  0.00  0.00    -0.204 F 
ATOM      6  C   UNL d   1     -25.164  25.158  24.360  0.00  0.00     0.064 A 
ATOM      7  C   UNL d   1     -24.305  24.618  23.397  0.00  0.00     0.068 A 
ENDROOT
BRANCH   3   8
ATOM      8  N   UNL d   1     -27.952  22.767  24.223  0.00  0.00    -0.178 N 
ATOM      9  C   UNL d   1     -28.254  22.053  25.330  0.00  0.00     0.351 A 
ATOM     10  N   UNL d   1     -29.534  21.661  25.217  0.00  0.00    -0.284 N 
ATOM     11  O   UNL d   1     -27.505  21.809  26.258  0.00  0.00    -0.244 OA
ATOM     12  C   UNL d   1     -30.019  22.106  24.004  0.00  0.00     0.131 A 
ATOM     13  C   UNL d   1     -30.327  20.909  26.196  0.00  0.00     0.135 C 
ATOM     14  N   UNL d   1     -29.091  22.772  23.404  0.00  0.00    -0.149 NA
ATOM     15  C   UNL d   1     -31.416  21.823  23.505  0.00  0.00     0.081 C 
ATOM     16  C   UNL d   1     -32.275  21.404  24.705  0.00  0.00     0.009 C 
ATOM     17  C   UNL d   1     -31.541  20.304  25.482  0.00  0.00     0.021 C 
ENDBRANCH   3   8
BRANCH   1  18
ATOM     18  O   UNL d   1     -23.845  22.924  21.774  0.00  0.00    -0.336 OA
BRANCH  18  19
ATOM     19  C   UNL d   1     -23.989  23.402  20.434  0.00  0.00     0.232 C 
ATOM     20  C   UNL d   1     -22.621  23.830  19.897  0.00  0.00     0.049 C 
BRANCH  19  21
ATOM     21  C   UNL d   1     -24.557  22.288  19.553  0.00  0.00     0.413 C 
ATOM     22  F   UNL d   1     -24.524  22.689  18.214  0.00  0.00    -0.168 F 
ATOM     23  F   UNL d   1     -23.787  21.131  19.712  0.00  0.00    -0.168 F 
ATOM     24  F   UNL d   1     -25.878  22.023  19.929  0.00  0.00    -0.168 F 
ENDBRANCH  19  21
ENDBRANCH  18  19
ENDBRANCH   1  18
BRANCH   7  25
ATOM     25  C   UNL d   1     -23.017  25.273  23.105  0.00  0.00     0.254 C 
ATOM     26  O   UNL d   1     -22.999  26.383  22.609  0.00  0.00    -0.268 OA
ATOM     27  N   UNL d   1     -21.861  24.641  23.386  0.00  0.00    -0.352 N 
ATOM     28  H   UNL d   1     -21.876  23.755  23.781  0.00  0.00     0.163 HD
BRANCH  27  29
ATOM     29  C   UNL d   1     -20.581  25.292  23.094  0.00  0.00     0.088 C 
ATOM     30  C   UNL d   1     -19.897  25.686  24.407  0.00  0.00     0.051 C 
ATOM     31  C   UNL d   1     -18.526  26.294  24.096  0.00  0.00     0.169 C 
ATOM     32  O   UNL d   1     -17.746  25.353  23.358  0.00  0.00    -0.391 OA
ATOM     33  C   UNL d   1     -18.313  24.983  22.100  0.00  0.00     0.169 C 
ATOM     34  C   UNL d   1     -19.674  24.322  22.331  0.00  0.00     0.051 C 
ENDBRANCH  27  29
ENDBRANCH   7  25
TORSDOF 6
ENDMDL
