MODEL 1
REMARK VINA RESULT:      -9.1      0.000      0.000
REMARK  10 active torsions:
REMARK  status: ('A' for Active; 'I' for Inactive)
REMARK    1  A    between atoms: C_2  and  C_3 
REMARK    2  A    between atoms: C_3  and  C_4 
REMARK    3  A    between atoms: C_4  and  O_6 
REMARK    4  A    between atoms: O_6  and  C_7 
REMARK    5  A    between atoms: C_9  and  N_10 
REMARK    6  A    between atoms: C_12  and  C_13 
REMARK    7  A    between atoms: C_22  and  C_23 
REMARK       I    between atoms: C_23  and  N_25 
REMARK    8  A    between atoms: N_25  and  C_26 
REMARK    9  A    between atoms: C_32  and  C_33 
REMARK   10  A    between atoms: C_33  and  N_34 
ROOT
ATOM      1  C   UNL d   1     -26.317  23.162  23.357  0.00  0.00     0.087 A 
ATOM      2  C   UNL d   1     -27.686  23.022  23.502  0.00  0.00     0.073 A 
ATOM      3  C   UNL d   1     -28.398  22.201  22.638  0.00  0.00     0.104 A 
ATOM      4  C   UNL d   1     -27.737  21.514  21.620  0.00  0.00     0.146 A 
ATOM      5  F   UNL d   1     -28.435  20.713  20.786  0.00  0.00    -0.204 F 
ATOM      6  C   UNL d   1     -26.376  21.646  21.466  0.00  0.00     0.064 A 
ATOM      7  C   UNL d   1     -25.651  22.471  22.333  0.00  0.00     0.068 A 
ENDROOT
BRANCH   7   8
ATOM      8  C   UNL d   1     -24.194  22.614  22.172  0.00  0.00     0.259 C 
ATOM      9  O   UNL d   1     -23.510  21.636  21.936  0.00  0.00    -0.267 OA
ATOM     10  N   UNL d   1     -23.619  23.827  22.283  0.00  0.00    -0.322 N 
ATOM     11  H   UNL d   1     -24.151  24.593  22.550  0.00  0.00     0.169 HD
BRANCH  10  12
ATOM     12  C   UNL d   1     -22.256  23.983  22.014  0.00  0.00     0.049 A 
ATOM     13  C   UNL d   1     -21.834  24.350  20.743  0.00  0.00    -0.003 A 
ATOM     14  C   UNL d   1     -20.487  24.503  20.481  0.00  0.00     0.011 A 
ATOM     15  C   UNL d   1     -19.558  24.291  21.482  0.00  0.00     0.001 A 
ATOM     16  C   UNL d   1     -19.974  23.925  22.750  0.00  0.00     0.009 A 
ATOM     17  C   UNL d   1     -21.320  23.775  23.020  0.00  0.00    -0.035 A 
ATOM     18  C   UNL d   1     -21.773  23.383  24.403  0.00  0.00     0.050 C 
BRANCH  13  19
ATOM     19  C   UNL d   1     -22.847  24.580  19.651  0.00  0.00     0.307 C 
BRANCH  19  20
ATOM     20  N   UNL d   1     -23.291  23.287  19.114  0.00  0.00     0.082 N 
ATOM     21  H   UNL d   1     -23.578  22.667  19.857  0.00  0.00     0.313 HD
ATOM     22  H   UNL d   1     -24.032  23.411  18.440  0.00  0.00     0.313 HD
ENDBRANCH  19  20
ENDBRANCH  13  19
ENDBRANCH  10  12
ENDBRANCH   7   8
BRANCH   1  23
ATOM     23  O   UNL d   1     -25.621  23.963  24.201  0.00  0.00    -0.345 OA
BRANCH  23  24
ATOM     24  C   UNL d   1     -25.949  25.354  24.193  0.00  0.00     0.124 C 
ATOM     25  C   UNL d   1     -26.295  25.805  25.614  0.00  0.00     0.040 C 
BRANCH  24  26
ATOM     26  C   UNL d   1     -24.751  26.157  23.682  0.00  0.00     0.032 C 
BRANCH  26  27
ATOM     27  C   UNL d   1     -23.727  26.319  24.808  0.00  0.00    -0.002 C 
ATOM     28  C   UNL d   1     -22.485  27.032  24.269  0.00  0.00     0.005 C 
ENDBRANCH  26  27
ENDBRANCH  24  26
ENDBRANCH  23  24
ENDBRANCH   1  23
BRANCH   3  29
ATOM     29  N   UNL d   1     -29.779  22.063  22.788  0.00  0.00    -0.178 N 
ATOM     30  C   UNL d   1     -30.428  21.676  23.906  0.00  0.00     0.351 A 
ATOM     31  N   UNL d   1     -31.748  21.678  23.629  0.00  0.00    -0.289 N 
ATOM     32  O   UNL d   1     -29.916  21.383  24.971  0.00  0.00    -0.244 OA
ATOM     33  C   UNL d   1     -31.913  22.061  22.320  0.00  0.00     0.130 A 
ATOM     34  C   UNL d   1     -32.821  21.325  24.562  0.00  0.00     0.162 C 
ATOM     35  N   UNL d   1     -30.749  22.295  21.804  0.00  0.00    -0.149 NA
BRANCH  33  36
ATOM     36  C   UNL d   1     -33.233  22.189  21.604  0.00  0.00     0.076 C 
ATOM     37  C   UNL d   1     -33.726  20.801  21.194  0.00  0.00     0.013 C 
ENDBRANCH  33  36
ENDBRANCH   3  29
TORSDOF 10
ENDMDL
