MODEL 1
REMARK VINA RESULT:      -8.4      0.000      0.000
REMARK  5 active torsions:
REMARK  status: ('A' for Active; 'I' for Inactive)
REMARK    1  A    between atoms: C_2  and  C_3 
REMARK    2  A    between atoms: C_3  and  N_4 
REMARK       I    between atoms: N_4  and  C_5 
REMARK    3  A    between atoms: C_5  and  C_7 
REMARK    4  A    between atoms: C_8  and  N_9 
REMARK    5  A    between atoms: N_9  and  C_10 
ROOT
ATOM      1  C   UNL d   1     -30.810  21.653  24.367  0.00  0.00     0.112 A 
ATOM      2  C   UNL d   1     -29.540  22.202  24.485  0.00  0.00     0.090 A 
ATOM      3  S   UNL d   1     -28.827  21.657  25.949  0.00  0.00    -0.103 SA
ATOM      4  C   UNL d   1     -30.238  20.634  26.474  0.00  0.00     0.165 A 
ATOM      5  C   UNL d   1     -31.256  20.810  25.374  0.00  0.00     0.177 A 
ATOM      6  O   UNL d   1     -32.347  20.274  25.370  0.00  0.00    -0.291 OA
ENDROOT
BRANCH   2   7
ATOM      7  N   UNL d   1     -28.954  23.043  23.583  0.00  0.00    -0.350 N 
ATOM      8  H   UNL d   1     -29.342  23.915  23.411  0.00  0.00     0.166 HD
BRANCH   7   9
ATOM      9  C   UNL d   1     -27.795  22.646  22.909  0.00  0.00     0.033 A 
ATOM     10  C   UNL d   1     -26.553  23.103  23.332  0.00  0.00     0.036 A 
ATOM     11  C   UNL d   1     -25.410  22.709  22.664  0.00  0.00    -0.054 A 
ATOM     12  C   UNL d   1     -25.502  21.860  21.576  0.00  0.00    -0.056 A 
ATOM     13  C   UNL d   1     -24.062  23.203  23.122  0.00  0.00     0.049 C 
ATOM     14  C   UNL d   1     -26.736  21.404  21.152  0.00  0.00     0.009 A 
ATOM     15  C   UNL d   1     -24.252  21.432  20.850  0.00  0.00     0.049 C 
ATOM     16  C   UNL d   1     -27.883  21.791  21.818  0.00  0.00     0.030 A 
ENDBRANCH   7   9
ENDBRANCH   2   7
BRANCH   1  17
ATOM     17  C   UNL d   1     -31.654  21.951  23.209  0.00  0.00     0.258 C 
ATOM     18  N   UNL d   1     -32.987  22.088  23.362  0.00  0.00    -0.357 N 
ATOM     19  H   UNL d   1     -33.380  22.045  24.248  0.00  0.00     0.162 HD
ATOM     20  O   UNL d   1     -31.154  22.072  22.106  0.00  0.00    -0.267 OA
BRANCH  18  21
ATOM     21  C   UNL d   1     -33.841  22.301  22.191  0.00  0.00     0.122 C 
BRANCH  21  22
ATOM     22  C   UNL d   1     -34.698  21.056  21.952  0.00  0.00     0.015 C 
ATOM     23  C   UNL d   1     -33.879  20.012  21.189  0.00  0.00     0.006 C 
ENDBRANCH  21  22
ENDBRANCH  18  21
ENDBRANCH   1  17
TORSDOF 5
ENDMDL
