MODEL 1
REMARK VINA RESULT:      -8.5      0.000      0.000
REMARK  8 active torsions:
REMARK  status: ('A' for Active; 'I' for Inactive)
REMARK    1  A    between atoms: C_2  and  O_3 
REMARK    2  A    between atoms: O_3  and  C_4 
REMARK    3  A    between atoms: C_4  and  C_6 
REMARK    4  A    between atoms: C_6  and  C_7 
REMARK    5  A    between atoms: C_6  and  C_19 
REMARK    6  A    between atoms: N_8  and  C_9 
REMARK    7  A    between atoms: C_19  and  O_21 
REMARK    8  A    between atoms: O_21  and  C_22 
ROOT
ATOM      1  C   UNL d   1     -30.124  22.164  23.287  0.00  0.00     0.115 C 
ATOM      2  N   UNL d   1     -28.991  22.531  23.786  0.00  0.00    -0.264 NA
ENDROOT
BRANCH   1   3
ATOM      3  C   UNL d   1     -31.389  22.328  24.088  0.00  0.00     0.225 C 
BRANCH   3   4
ATOM      4  C   UNL d   1     -32.570  21.900  23.255  0.00  0.00     0.277 C 
ATOM      5  O   UNL d   1     -33.666  21.819  23.758  0.00  0.00    -0.264 OA
BRANCH   4   6
ATOM      6  O   UNL d   1     -32.405  21.608  21.955  0.00  0.00    -0.321 OA
BRANCH   6   7
ATOM      7  C   UNL d   1     -33.606  21.361  21.178  0.00  0.00     0.174 C 
ATOM      8  C   UNL d   1     -33.894  19.859  21.149  0.00  0.00     0.034 C 
ENDBRANCH   6   7
ENDBRANCH   4   6
ENDBRANCH   3   4
BRANCH   3   9
ATOM      9  C   UNL d   1     -31.314  21.475  25.329  0.00  0.00     0.277 C 
ATOM     10  O   UNL d   1     -31.422  21.986  26.419  0.00  0.00    -0.264 OA
BRANCH   9  11
ATOM     11  O   UNL d   1     -31.127  20.150  25.223  0.00  0.00    -0.321 OA
BRANCH  11  12
ATOM     12  C   UNL d   1     -32.125  19.294  25.838  0.00  0.00     0.174 C 
ATOM     13  C   UNL d   1     -31.429  18.149  26.577  0.00  0.00     0.034 C 
ENDBRANCH  11  12
ENDBRANCH   9  11
ENDBRANCH   3   9
ENDBRANCH   1   3
BRANCH   2  14
ATOM     14  C   UNL d   1     -27.837  22.377  23.060  0.00  0.00     0.057 A 
ATOM     15  C   UNL d   1     -26.671  22.959  23.509  0.00  0.00     0.046 A 
ATOM     16  C   UNL d   1     -25.486  22.795  22.765  0.00  0.00     0.013 A 
ATOM     17  C   UNL d   1     -25.531  22.015  21.518  0.00  0.00     0.088 A 
ATOM     18  C   UNL d   1     -24.178  23.220  22.913  0.00  0.00     0.123 A 
ATOM     19  C   UNL d   1     -26.760  21.450  21.111  0.00  0.00     0.036 A 
ATOM     20  N   UNL d   1     -24.307  22.020  21.021  0.00  0.00    -0.175 NA
ATOM     21  C   UNL d   1     -27.870  21.631  21.865  0.00  0.00     0.034 A 
ATOM     22  N   UNL d   1     -23.474  22.756  21.871  0.00  0.00    -0.288 N 
ATOM     23  H   UNL d   1     -22.527  22.909  21.728  0.00  0.00     0.188 HD
ENDBRANCH   2  14
TORSDOF 8
ENDMDL
