MODEL 1
REMARK VINA RESULT:      -9.9      0.000      0.000
REMARK  7 active torsions:
REMARK  status: ('A' for Active; 'I' for Inactive)
REMARK    1  A    between atoms: C_2  and  O_3 
REMARK    2  A    between atoms: O_3  and  C_4 
REMARK    3  A    between atoms: C_4  and  C_6 
REMARK    4  A    between atoms: C_8  and  N_9 
REMARK    5  A    between atoms: N_9  and  C_10 
REMARK    6  A    between atoms: C_13  and  C_14 
REMARK    7  A    between atoms: C_21  and  C_22 
ROOT
ATOM      1  C   UNL d   1     -25.442  22.509  22.188  0.00  0.00     0.113 A 
ATOM      2  S   UNL d   1     -26.962  21.659  22.455  0.00  0.00    -0.044 SA
ATOM      3  C   UNL d   1     -27.177  22.472  23.942  0.00  0.00     0.172 A 
ATOM      4  N   UNL d   1     -26.188  23.284  24.171  0.00  0.00    -0.222 NA
ATOM      5  C   UNL d   1     -25.231  23.339  23.271  0.00  0.00     0.093 A 
ENDROOT
BRANCH   3   6
ATOM      6  N   UNL d   1     -28.252  22.291  24.785  0.00  0.00    -0.335 N 
ATOM      7  H   UNL d   1     -28.124  22.311  25.746  0.00  0.00     0.168 HD
BRANCH   6   8
ATOM      8  C   UNL d   1     -29.528  22.079  24.254  0.00  0.00     0.034 A 
ATOM      9  C   UNL d   1     -29.850  22.573  22.996  0.00  0.00     0.030 A 
ATOM     10  C   UNL d   1     -31.111  22.361  22.475  0.00  0.00     0.010 A 
ATOM     11  C   UNL d   1     -32.053  21.658  23.203  0.00  0.00    -0.051 A 
ATOM     12  C   UNL d   1     -31.736  21.165  24.456  0.00  0.00     0.010 A 
ATOM     13  C   UNL d   1     -30.477  21.370  24.981  0.00  0.00     0.030 A 
BRANCH  11  14
ATOM     14  C   UNL d   1     -33.429  21.429  22.630  0.00  0.00    -0.024 C 
ATOM     15  C   UNL d   1     -34.246  20.570  23.598  0.00  0.00     0.019 C 
ATOM     16  C   UNL d   1     -34.127  22.775  22.428  0.00  0.00     0.019 C 
ATOM     17  C   UNL d   1     -33.308  20.709  21.287  0.00  0.00     0.019 C 
ENDBRANCH  11  14
ENDBRANCH   6   8
ENDBRANCH   3   6
BRANCH   1  18
ATOM     18  C   UNL d   1     -24.589  22.362  21.069  0.00  0.00     0.302 C 
ATOM     19  O   UNL d   1     -24.198  21.257  20.744  0.00  0.00    -0.259 OA
BRANCH  18  20
ATOM     20  O   UNL d   1     -24.210  23.448  20.362  0.00  0.00    -0.317 OA
BRANCH  20  21
ATOM     21  C   UNL d   1     -22.845  23.505  19.943  0.00  0.00     0.174 C 
ATOM     22  C   UNL d   1     -22.326  24.937  20.091  0.00  0.00     0.034 C 
ENDBRANCH  20  21
ENDBRANCH  18  20
ENDBRANCH   1  18
BRANCH   5  23
ATOM     23  C   UNL d   1     -24.041  24.212  23.402  0.00  0.00    -0.006 A 
ATOM     24  C   UNL d   1     -24.174  25.597  23.301  0.00  0.00     0.014 A 
ATOM     25  C   UNL d   1     -23.062  26.404  23.426  0.00  0.00     0.001 A 
ATOM     26  C   UNL d   1     -21.817  25.843  23.648  0.00  0.00     0.000 A 
ATOM     27  C   UNL d   1     -21.679  24.470  23.749  0.00  0.00     0.001 A 
ATOM     28  C   UNL d   1     -22.784  23.653  23.633  0.00  0.00     0.014 A 
ENDBRANCH   5  23
TORSDOF 7
ENDMDL
