MODEL 1
REMARK VINA RESULT:     -10.5      0.000      0.000
REMARK  7 active torsions:
REMARK  status: ('A' for Active; 'I' for Inactive)
REMARK    1  A    between atoms: C_2  and  O_3 
REMARK    2  A    between atoms: O_3  and  C_4 
REMARK    3  A    between atoms: C_8  and  C_9 
REMARK    4  A    between atoms: C_13  and  N_14 
REMARK    5  A    between atoms: N_14  and  C_15 
REMARK    6  A    between atoms: C_20  and  C_21 
REMARK    7  A    between atoms: C_21  and  O_23 
ROOT
ATOM      1  C   UNL d   1     -26.240  23.468  23.945  0.00  0.00    -0.020 A 
ATOM      2  C   UNL d   1     -26.617  23.449  25.287  0.00  0.00     0.057 A 
ATOM      3  C   UNL d   1     -27.679  22.669  25.694  0.00  0.00     0.146 A 
ATOM      4  F   UNL d   1     -28.048  22.654  26.995  0.00  0.00    -0.204 F 
ATOM      5  C   UNL d   1     -28.368  21.891  24.768  0.00  0.00     0.112 A 
ATOM      6  C   UNL d   1     -27.990  21.904  23.430  0.00  0.00     0.146 A 
ATOM      7  F   UNL d   1     -28.659  21.148  22.532  0.00  0.00    -0.204 F 
ATOM      8  C   UNL d   1     -26.931  22.688  23.019  0.00  0.00     0.057 A 
ENDROOT
BRANCH   5   9
ATOM      9  N   UNL d   1     -29.442  21.096  25.184  0.00  0.00    -0.335 N 
ATOM     10  H   UNL d   1     -29.306  20.411  25.857  0.00  0.00     0.168 HD
BRANCH   9  11
ATOM     11  C   UNL d   1     -30.696  21.287  24.636  0.00  0.00     0.144 A 
ATOM     12  C   UNL d   1     -31.756  20.437  25.000  0.00  0.00     0.083 A 
ATOM     13  C   UNL d   1     -33.018  20.650  24.430  0.00  0.00     0.024 A 
ATOM     14  C   UNL d   1     -33.165  21.692  23.533  0.00  0.00     0.020 A 
ATOM     15  C   UNL d   1     -32.075  22.486  23.224  0.00  0.00     0.119 A 
ATOM     16  N   UNL d   1     -30.896  22.273  23.774  0.00  0.00    -0.242 NA
BRANCH  12  17
ATOM     17  C   UNL d   1     -31.542  19.341  25.960  0.00  0.00     0.180 C 
ATOM     18  O   UNL d   1     -31.901  18.214  25.686  0.00  0.00    -0.646 OA
BRANCH  17  19
ATOM     19  O   UNL d   1     -30.946  19.590  27.143  0.00  0.00    -0.773 OA
ATOM     20  H   UNL d   1     -30.965  18.882  27.801  0.00  0.00     0.167 HD
ENDBRANCH  17  19
ENDBRANCH  12  17
ENDBRANCH   9  11
ENDBRANCH   5   9
BRANCH   1  21
ATOM     21  C   UNL d   1     -25.102  24.311  23.504  0.00  0.00    -0.023 A 
ATOM     22  C   UNL d   1     -25.004  25.633  23.935  0.00  0.00     0.012 A 
ATOM     23  C   UNL d   1     -23.945  26.416  23.523  0.00  0.00     0.004 A 
ATOM     24  C   UNL d   1     -22.983  25.896  22.677  0.00  0.00     0.037 A 
ATOM     25  C   UNL d   1     -23.070  24.578  22.248  0.00  0.00     0.069 A 
ATOM     26  C   UNL d   1     -24.130  23.785  22.656  0.00  0.00     0.049 A 
BRANCH  25  27
ATOM     27  O   UNL d   1     -22.119  24.069  21.422  0.00  0.00    -0.351 OA
BRANCH  27  28
ATOM     28  C   UNL d   1     -20.942  24.854  21.224  0.00  0.00     0.171 C 
ATOM     29  C   UNL d   1     -19.733  24.117  21.805  0.00  0.00     0.034 C 
ENDBRANCH  27  28
ENDBRANCH  25  27
ENDBRANCH   1  21
TORSDOF 7
ENDMDL
