MODEL 1
REMARK VINA RESULT:     -12.3      0.000      0.000
REMARK  6 active torsions:
REMARK  status: ('A' for Active; 'I' for Inactive)
REMARK    1  A    between atoms: C_4  and  O_5 
REMARK    2  A    between atoms: O_5  and  C_6 
REMARK    3  A    between atoms: C_12  and  C_13 
REMARK    4  A    between atoms: C_17  and  C_18 
REMARK    5  A    between atoms: C_20  and  C_21 
REMARK    6  A    between atoms: C_21  and  O_23 
ROOT
ATOM      1  C   UNL d   1     -26.912  23.463  25.569  0.00  0.00     0.049 C 
ATOM      2  C   UNL d   1     -26.148  23.236  24.289  0.00  0.00    -0.047 A 
ATOM      3  C   UNL d   1     -24.809  23.556  24.219  0.00  0.00     0.045 A 
ATOM      4  C   UNL d   1     -24.104  23.344  23.041  0.00  0.00     0.083 A 
ATOM      5  C   UNL d   1     -24.748  22.818  21.928  0.00  0.00    -0.020 A 
ATOM      6  C   UNL d   1     -26.085  22.497  21.992  0.00  0.00     0.024 A 
ATOM      7  C   UNL d   1     -26.796  22.704  23.175  0.00  0.00    -0.001 A 
ENDROOT
BRANCH   7   8
ATOM      8  C   UNL d   1     -28.235  22.358  23.248  0.00  0.00     0.069 A 
ATOM      9  N   UNL d   1     -28.978  22.495  22.170  0.00  0.00    -0.247 NA
ATOM     10  C   UNL d   1     -30.278  22.199  22.156  0.00  0.00     0.069 A 
ATOM     11  C   UNL d   1     -30.910  21.729  23.336  0.00  0.00     0.013 A 
ATOM     12  C   UNL d   1     -31.045  22.352  20.986  0.00  0.00     0.035 A 
ATOM     13  C   UNL d   1     -30.106  21.573  24.548  0.00  0.00     0.052 A 
ATOM     14  C   UNL d   1     -32.275  21.424  23.320  0.00  0.00     0.057 A 
ATOM     15  C   UNL d   1     -28.759  21.901  24.466  0.00  0.00     0.051 A 
ATOM     16  C   UNL d   1     -32.988  21.584  22.166  0.00  0.00     0.117 A 
ATOM     17  F   UNL d   1     -34.307  21.291  22.150  0.00  0.00    -0.206 F 
ATOM     18  C   UNL d   1     -32.370  22.047  21.003  0.00  0.00     0.044 A 
BRANCH  13  19
ATOM     19  C   UNL d   1     -30.704  21.088  25.810  0.00  0.00     0.177 C 
ATOM     20  O   UNL d   1     -31.343  21.847  26.510  0.00  0.00    -0.646 OA
BRANCH  19  21
ATOM     21  O   UNL d   1     -30.540  19.804  26.181  0.00  0.00    -0.773 OA
ATOM     22  H   UNL d   1     -31.073  19.142  25.718  0.00  0.00     0.167 HD
ENDBRANCH  19  21
ENDBRANCH  13  19
ENDBRANCH   7   8
BRANCH   5  23
ATOM     23  C   UNL d   1     -23.979  22.594  20.651  0.00  0.00     0.013 C 
ATOM     24  C   UNL d   1     -24.939  22.128  19.554  0.00  0.00     0.015 C 
ATOM     25  C   UNL d   1     -23.311  23.902  20.221  0.00  0.00     0.015 C 
ENDBRANCH   5  23
BRANCH   4  26
ATOM     26  O   UNL d   1     -22.784  23.656  22.977  0.00  0.00    -0.310 OA
BRANCH  26  27
ATOM     27  C   UNL d   1     -22.363  24.788  23.601  0.00  0.00     0.076 A 
ATOM     28  C   UNL d   1     -21.232  24.759  24.404  0.00  0.00     0.037 A 
ATOM     29  C   UNL d   1     -20.807  25.911  25.038  0.00  0.00     0.003 A 
ATOM     30  C   UNL d   1     -21.508  27.092  24.870  0.00  0.00     0.000 A 
ATOM     31  C   UNL d   1     -22.635  27.123  24.071  0.00  0.00     0.003 A 
ATOM     32  C   UNL d   1     -23.061  25.974  23.431  0.00  0.00     0.037 A 
ENDBRANCH  26  27
ENDBRANCH   4  26
TORSDOF 6
ENDMDL
