MODEL 1
REMARK VINA RESULT:      -8.9      0.000      0.000
REMARK  6 active torsions:
REMARK  status: ('A' for Active; 'I' for Inactive)
REMARK    1  A    between atoms: C_2  and  C_4 
REMARK    2  A    between atoms: N_6  and  C_7 
REMARK    3  A    between atoms: C_19  and  N_20 
REMARK    4  A    between atoms: C_22  and  C_23 
REMARK    5  A    between atoms: C_23  and  O_24 
REMARK    6  A    between atoms: N_25  and  C_26 
ROOT
ATOM      1  C   UNL d   1     -24.516  22.980  20.978  0.00  0.00     0.094 A 
ATOM      2  N   UNL d   1     -23.658  23.725  21.634  0.00  0.00    -0.163 NA
ATOM      3  N   UNL d   1     -23.933  24.249  22.897  0.00  0.00    -0.192 N 
ATOM      4  C   UNL d   1     -25.105  24.020  23.523  0.00  0.00     0.280 A 
ATOM      5  O   UNL d   1     -25.320  24.491  24.626  0.00  0.00    -0.265 OA
ATOM      6  C   UNL d   1     -26.120  23.196  22.856  0.00  0.00     0.049 A 
ATOM      7  C   UNL d   1     -27.354  22.928  23.447  0.00  0.00     0.053 A 
ATOM      8  C   UNL d   1     -28.274  22.140  22.778  0.00  0.00     0.103 A 
ATOM      9  C   UNL d   1     -27.979  21.624  21.513  0.00  0.00     0.146 A 
ATOM     10  F   UNL d   1     -28.890  20.862  20.872  0.00  0.00    -0.204 F 
ATOM     11  C   UNL d   1     -26.765  21.887  20.915  0.00  0.00     0.059 A 
ATOM     12  C   UNL d   1     -25.824  22.673  21.576  0.00  0.00     0.014 A 
ENDROOT
BRANCH   8  13
ATOM     13  N   UNL d   1     -29.511  21.863  23.370  0.00  0.00    -0.178 N 
ATOM     14  C   UNL d   1     -30.727  22.103  22.834  0.00  0.00     0.351 A 
ATOM     15  N   UNL d   1     -31.650  21.694  23.727  0.00  0.00    -0.283 N 
ATOM     16  O   UNL d   1     -30.948  22.600  21.744  0.00  0.00    -0.244 OA
ATOM     17  C   UNL d   1     -30.996  21.187  24.823  0.00  0.00     0.154 A 
ATOM     18  N   UNL d   1     -29.719  21.280  24.628  0.00  0.00    -0.147 NA
BRANCH  15  19
ATOM     19  C   UNL d   1     -33.102  21.771  23.555  0.00  0.00     0.131 C 
ATOM     20  C   UNL d   1     -33.608  20.487  22.895  0.00  0.00     0.027 C 
ENDBRANCH  15  19
BRANCH  17  21
ATOM     21  C   UNL d   1     -31.655  20.616  26.052  0.00  0.00     0.244 C 
BRANCH  21  22
ATOM     22  O   UNL d   1     -30.779  19.671  26.668  0.00  0.00    -0.393 OA
ATOM     23  H   UNL d   1     -29.855  19.953  26.697  0.00  0.00     0.209 HD
ENDBRANCH  21  22
ENDBRANCH  17  21
ENDBRANCH   8  13
BRANCH   3  24
ATOM     24  C   UNL d   1     -22.965  25.035  23.533  0.00  0.00     0.122 A 
ATOM     25  C   UNL d   1     -21.801  24.450  24.015  0.00  0.00     0.066 A 
ATOM     26  C   UNL d   1     -20.843  25.230  24.637  0.00  0.00     0.026 A 
ATOM     27 CL   UNL d   1     -21.544  22.743  23.830  0.00  0.00    -0.082 Cl
ATOM     28  C   UNL d   1     -21.049  26.590  24.790  0.00  0.00     0.005 A 
ATOM     29  C   UNL d   1     -22.209  27.175  24.317  0.00  0.00     0.045 A 
ATOM     30  C   UNL d   1     -23.169  26.402  23.688  0.00  0.00     0.146 A 
ATOM     31  F   UNL d   1     -24.302  26.974  23.226  0.00  0.00    -0.204 F 
ENDBRANCH   3  24
BRANCH   1  32
ATOM     32  C   UNL d   1     -24.169  22.453  19.645  0.00  0.00    -0.040 C 
ATOM     33  C   UNL d   1     -23.470  21.329  19.537  0.00  0.00     0.021 C 
ATOM     34  C   UNL d   1     -24.610  23.188  18.406  0.00  0.00     0.050 C 
ENDBRANCH   1  32
TORSDOF 6
ENDMDL
