MODEL 1
REMARK VINA RESULT:      -9.5      0.000      0.000
REMARK  5 active torsions:
REMARK  status: ('A' for Active; 'I' for Inactive)
REMARK    1  A    between atoms: C_7  and  N_8 
REMARK    2  A    between atoms: C_10  and  C_11 
REMARK    3  A    between atoms: C_16  and  C_17 
REMARK    4  A    between atoms: C_21  and  C_22 
REMARK    5  A    between atoms: C_22  and  O_25 
ROOT
ATOM      1  N   UNL d   1     -23.851  23.713  22.115  0.00  0.00    -0.288 N 
ATOM      2  C   UNL d   1     -24.438  24.425  23.124  0.00  0.00     0.109 A 
ATOM      3  C   UNL d   1     -25.729  24.273  23.455  0.00  0.00    -0.027 A 
ATOM      4  C   UNL d   1     -26.553  23.312  22.716  0.00  0.00    -0.011 A 
ATOM      5  C   UNL d   1     -27.900  23.117  23.012  0.00  0.00     0.030 A 
ATOM      6  C   UNL d   1     -28.630  22.188  22.281  0.00  0.00     0.034 A 
ATOM      7  C   UNL d   1     -28.022  21.461  21.248  0.00  0.00     0.130 A 
ATOM      8  F   UNL d   1     -28.747  20.565  20.544  0.00  0.00    -0.205 F 
ATOM      9  C   UNL d   1     -26.703  21.648  20.945  0.00  0.00     0.061 A 
ATOM     10  C   UNL d   1     -25.949  22.573  21.670  0.00  0.00     0.046 A 
ATOM     11  C   UNL d   1     -24.532  22.809  21.383  0.00  0.00     0.263 A 
ATOM     12  O   UNL d   1     -23.973  22.193  20.492  0.00  0.00    -0.267 OA
ENDROOT
BRANCH   6  13
ATOM     13  C   UNL d   1     -30.062  21.968  22.592  0.00  0.00     0.087 A 
ATOM     14  N   UNL d   1     -31.094  22.114  21.735  0.00  0.00    -0.230 NA
ATOM     15  C   UNL d   1     -32.207  21.837  22.355  0.00  0.00     0.140 A 
ATOM     16  N   UNL d   1     -31.927  21.504  23.634  0.00  0.00    -0.345 N 
ATOM     17  C   UNL d   1     -30.574  21.584  23.792  0.00  0.00     0.124 A 
ATOM     18  C   UNL d   1     -32.899  21.130  24.665  0.00  0.00     0.157 C 
BRANCH  15  19
ATOM     19  C   UNL d   1     -33.583  21.881  21.743  0.00  0.00     0.111 C 
ATOM     20  C   UNL d   1     -34.240  20.504  21.865  0.00  0.00     0.054 C 
ATOM     21  C   UNL d   1     -34.435  22.919  22.476  0.00  0.00     0.054 C 
BRANCH  19  22
ATOM     22  O   UNL d   1     -33.480  22.239  20.363  0.00  0.00    -0.383 OA
ATOM     23  H   UNL d   1     -33.414  23.191  20.207  0.00  0.00     0.211 HD
ENDBRANCH  19  22
ENDBRANCH  15  19
ENDBRANCH   6  13
BRANCH   3  24
ATOM     24  C   UNL d   1     -26.329  25.081  24.577  0.00  0.00     0.013 C 
ATOM     25  C   UNL d   1     -26.689  24.152  25.738  0.00  0.00     0.015 C 
ATOM     26  C   UNL d   1     -25.315  26.124  25.053  0.00  0.00     0.015 C 
ENDBRANCH   3  24
BRANCH   1  27
ATOM     27  C   UNL d   1     -22.498  23.930  21.832  0.00  0.00     0.048 A 
ATOM     28  C   UNL d   1     -21.523  23.500  22.723  0.00  0.00    -0.035 A 
ATOM     29  C   UNL d   1     -21.921  22.798  23.996  0.00  0.00     0.050 C 
ATOM     30  C   UNL d   1     -20.188  23.716  22.442  0.00  0.00     0.009 A 
ATOM     31  C   UNL d   1     -19.821  24.359  21.274  0.00  0.00     0.001 A 
ATOM     32  C   UNL d   1     -20.790  24.789  20.384  0.00  0.00     0.002 A 
ATOM     33  C   UNL d   1     -22.126  24.572  20.658  0.00  0.00     0.030 A 
ENDBRANCH   1  27
TORSDOF 5
ENDMDL
