MODEL 1
REMARK VINA RESULT:     -11.3      0.000      0.000
REMARK  6 active torsions:
REMARK  status: ('A' for Active; 'I' for Inactive)
REMARK    1  A    between atoms: C_5  and  C_6 
REMARK    2  A    between atoms: C_6  and  O_8 
REMARK    3  A    between atoms: C_10  and  C_11 
REMARK    4  A    between atoms: C_14  and  C_15 
REMARK    5  A    between atoms: C_20  and  C_21 
REMARK    6  A    between atoms: C_21  and  N_22 
ROOT
ATOM      1  C   UNL d   1     -26.641  22.792  22.829  0.00  0.00    -0.026 A 
ATOM      2  C   UNL d   1     -25.997  22.040  21.847  0.00  0.00     0.013 A 
ATOM      3  C   UNL d   1     -24.716  22.367  21.458  0.00  0.00     0.013 A 
ATOM      4  C   UNL d   1     -24.058  23.441  22.057  0.00  0.00    -0.025 A 
ATOM      5  C   UNL d   1     -24.701  24.190  23.043  0.00  0.00     0.013 A 
ATOM      6  C   UNL d   1     -25.984  23.868  23.426  0.00  0.00     0.013 A 
ENDROOT
BRANCH   1   7
ATOM      7  C   UNL d   1     -28.022  22.445  23.241  0.00  0.00    -0.023 A 
ATOM      8  C   UNL d   1     -28.272  22.033  24.550  0.00  0.00     0.033 A 
ATOM      9  C   UNL d   1     -29.563  21.705  24.947  0.00  0.00     0.069 A 
ATOM     10  C   UNL d   1     -30.622  21.792  24.015  0.00  0.00     0.102 A 
ATOM     11  N   UNL d   1     -31.945  21.550  24.092  0.00  0.00    -0.233 NA
ATOM     12  C   UNL d   1     -30.354  22.208  22.699  0.00  0.00     0.064 A 
ATOM     13  C   UNL d   1     -32.506  21.787  22.941  0.00  0.00     0.101 A 
ATOM     14  C   UNL d   1     -33.976  21.634  22.647  0.00  0.00     0.091 C 
ATOM     15  N   UNL d   1     -31.571  22.192  22.043  0.00  0.00    -0.343 N 
ATOM     16  H   UNL d   1     -31.727  22.429  21.114  0.00  0.00     0.167 HD
ATOM     17  C   UNL d   1     -29.063  22.532  22.320  0.00  0.00     0.044 A 
BRANCH   9  18
ATOM     18  C   UNL d   1     -29.827  21.270  26.329  0.00  0.00     0.178 C 
ATOM     19  O   UNL d   1     -29.462  21.957  27.262  0.00  0.00    -0.646 OA
BRANCH  18  20
ATOM     20  O   UNL d   1     -30.470  20.108  26.559  0.00  0.00    -0.773 OA
ATOM     21  H   UNL d   1     -30.267  19.370  25.968  0.00  0.00     0.167 HD
ENDBRANCH  18  20
ENDBRANCH   9  18
ENDBRANCH   1   7
BRANCH   4  22
ATOM     22  C   UNL d   1     -22.678  23.788  21.643  0.00  0.00    -0.018 A 
ATOM     23  C   UNL d   1     -21.666  23.890  22.597  0.00  0.00    -0.019 A 
ATOM     24  C   UNL d   1     -20.382  24.209  22.205  0.00  0.00     0.010 A 
ATOM     25  C   UNL d   1     -20.099  24.437  20.869  0.00  0.00     0.001 A 
ATOM     26  C   UNL d   1     -21.100  24.343  19.920  0.00  0.00     0.001 A 
ATOM     27  C   UNL d   1     -22.387  24.019  20.299  0.00  0.00     0.013 A 
BRANCH  23  28
ATOM     28  C   UNL d   1     -21.973  23.648  24.052  0.00  0.00     0.311 C 
BRANCH  28  29
ATOM     29  N   UNL d   1     -21.629  24.846  24.829  0.00  0.00     0.092 N 
ATOM     30  C   UNL d   1     -22.197  26.053  24.215  0.00  0.00     0.272 C 
ATOM     31  C   UNL d   1     -21.944  27.257  25.125  0.00  0.00     0.030 C 
ATOM     32  C   UNL d   1     -20.437  27.428  25.332  0.00  0.00     0.003 C 
ATOM     33  C   UNL d   1     -19.862  26.140  25.927  0.00  0.00     0.030 C 
ATOM     34  C   UNL d   1     -20.176  24.968  24.994  0.00  0.00     0.272 C 
ENDBRANCH  28  29
ENDBRANCH  23  28
ENDBRANCH   4  22
TORSDOF 6
ENDMDL
