MODEL 1
REMARK VINA RESULT:     -10.1      0.000      0.000
REMARK  3 active torsions:
REMARK  status: ('A' for Active; 'I' for Inactive)
REMARK    1  A    between atoms: C_3  and  O_4 
REMARK    2  A    between atoms: C_5  and  N_6 
REMARK    3  A    between atoms: N_6  and  C_7 
ROOT
ATOM      1  O   UNL d   1     -30.564  20.191  26.677  0.00  0.00    -0.284 OA
ATOM      2  C   UNL d   1     -30.537  20.863  25.663  0.00  0.00     0.218 A 
ATOM      3  C   UNL d   1     -29.334  21.634  25.324  0.00  0.00     0.148 A 
ATOM      4  C   UNL d   1     -29.288  22.388  24.195  0.00  0.00     0.121 A 
ATOM      5  C   UNL d   1     -30.448  22.456  23.286  0.00  0.00     0.212 A 
ATOM      6  O   UNL d   1     -30.399  23.137  22.282  0.00  0.00    -0.285 OA
ATOM      7  C   UNL d   1     -31.672  21.683  23.601  0.00  0.00     0.031 A 
ATOM      8  C   UNL d   1     -32.775  21.728  22.758  0.00  0.00     0.016 A 
ATOM      9  C   UNL d   1     -33.913  21.002  23.075  0.00  0.00     0.001 A 
ATOM     10  C   UNL d   1     -33.957  20.236  24.223  0.00  0.00     0.001 A 
ATOM     11  C   UNL d   1     -32.864  20.183  25.074  0.00  0.00     0.016 A 
ATOM     12  C   UNL d   1     -31.716  20.904  24.770  0.00  0.00     0.031 A 
ENDROOT
BRANCH   4  13
ATOM     13  N   UNL d   1     -28.140  23.106  23.898  0.00  0.00    -0.351 N 
ATOM     14  H   UNL d   1     -27.999  23.981  24.292  0.00  0.00     0.166 HD
BRANCH  13  15
ATOM     15  C   UNL d   1     -27.185  22.569  23.034  0.00  0.00     0.034 A 
ATOM     16  C   UNL d   1     -25.844  22.898  23.186  0.00  0.00     0.053 A 
ATOM     17  C   UNL d   1     -24.901  22.364  22.329  0.00  0.00     0.036 A 
ATOM     18  C   UNL d   1     -25.292  21.500  21.320  0.00  0.00     0.024 A 
ATOM     19 CL   UNL d   1     -23.226  22.775  22.516  0.00  0.00    -0.084 Cl
ATOM     20  C   UNL d   1     -26.626  21.170  21.167  0.00  0.00     0.004 A 
ATOM     21  C   UNL d   1     -27.572  21.696  22.024  0.00  0.00     0.029 A 
ENDBRANCH  13  15
ENDBRANCH   4  13
BRANCH   3  22
ATOM     22  O   UNL d   1     -28.255  21.593  26.148  0.00  0.00    -0.355 OA
ATOM     23  H   UNL d   1     -27.984  20.698  26.397  0.00  0.00     0.218 HD
ENDBRANCH   3  22
TORSDOF 3
ENDMDL
