MODEL 1
REMARK VINA RESULT:      -9.4      0.000      0.000
REMARK  7 active torsions:
REMARK  status: ('A' for Active; 'I' for Inactive)
REMARK    1  A    between atoms: C_2  and  N_3 
REMARK    2  A    between atoms: C_4  and  C_5 
REMARK    3  A    between atoms: C_5  and  O_6 
REMARK    4  A    between atoms: N_8  and  C_9 
REMARK    5  A    between atoms: C_12  and  C_13 
REMARK    6  A    between atoms: N_17  and  C_18 
REMARK    7  A    between atoms: C_20  and  O_21 
ROOT
ATOM      1  C   UNL d   1     -28.676  22.178  22.375  0.00  0.00     0.103 A 
ATOM      2  C   UNL d   1     -28.014  23.109  23.155  0.00  0.00     0.048 A 
ATOM      3  C   UNL d   1     -26.657  23.342  22.939  0.00  0.00    -0.010 A 
ATOM      4  C   UNL d   1     -25.902  24.314  23.733  0.00  0.00    -0.027 A 
ATOM      5  C   UNL d   1     -24.595  24.495  23.485  0.00  0.00     0.109 A 
ATOM      6  N   UNL d   1     -23.935  23.809  22.504  0.00  0.00    -0.285 N 
ATOM      7  C   UNL d   1     -24.550  22.896  21.726  0.00  0.00     0.263 A 
ATOM      8  O   UNL d   1     -23.925  22.301  20.865  0.00  0.00    -0.267 OA
ATOM      9  C   UNL d   1     -25.976  22.626  21.927  0.00  0.00     0.046 A 
ATOM     10  C   UNL d   1     -26.665  21.692  21.152  0.00  0.00     0.062 A 
ATOM     11  C   UNL d   1     -27.995  21.474  21.377  0.00  0.00     0.146 A 
ATOM     12  F   UNL d   1     -28.660  20.568  20.626  0.00  0.00    -0.204 F 
ENDROOT
BRANCH   1  13
ATOM     13  N   UNL d   1     -30.037  21.938  22.586  0.00  0.00    -0.178 N 
ATOM     14  N   UNL d   1     -30.627  21.487  23.774  0.00  0.00    -0.147 NA
ATOM     15  C   UNL d   1     -31.903  21.387  23.578  0.00  0.00     0.154 A 
ATOM     16  N   UNL d   1     -32.183  21.758  22.286  0.00  0.00    -0.283 N 
ATOM     17  C   UNL d   1     -31.027  22.102  21.683  0.00  0.00     0.351 A 
ATOM     18  O   UNL d   1     -30.899  22.487  20.534  0.00  0.00    -0.244 OA
BRANCH  15  19
ATOM     19  C   UNL d   1     -32.914  20.934  24.600  0.00  0.00     0.244 C 
BRANCH  19  20
ATOM     20  O   UNL d   1     -32.318  20.947  25.898  0.00  0.00    -0.393 OA
ATOM     21  H   UNL d   1     -31.351  20.909  25.887  0.00  0.00     0.209 HD
ENDBRANCH  19  20
ENDBRANCH  15  19
BRANCH  16  22
ATOM     22  C   UNL d   1     -33.512  21.782  21.670  0.00  0.00     0.131 C 
ATOM     23  C   UNL d   1     -33.896  20.368  21.229  0.00  0.00     0.027 C 
ENDBRANCH  16  22
ENDBRANCH   1  13
BRANCH   4  24
ATOM     24  C   UNL d   1     -26.586  25.102  24.821  0.00  0.00     0.013 C 
ATOM     25  C   UNL d   1     -26.911  24.176  25.994  0.00  0.00     0.015 C 
ATOM     26  C   UNL d   1     -25.659  26.223  25.298  0.00  0.00     0.015 C 
ENDBRANCH   4  24
BRANCH   6  27
ATOM     27  C   UNL d   1     -22.571  24.058  22.304  0.00  0.00     0.083 A 
ATOM     28  C   UNL d   1     -22.107  24.425  21.046  0.00  0.00     0.143 A 
ATOM     29  C   UNL d   1     -20.761  24.676  20.852  0.00  0.00     0.047 A 
ATOM     30  F   UNL d   1     -22.972  24.542  20.015  0.00  0.00    -0.204 F 
ATOM     31  C   UNL d   1     -19.874  24.557  21.905  0.00  0.00     0.040 A 
ATOM     32  C   UNL d   1     -20.332  24.186  23.162  0.00  0.00     0.070 A 
ATOM     33  C   UNL d   1     -21.679  23.933  23.361  0.00  0.00     0.070 A 
BRANCH  32  34
ATOM     34  O   UNL d   1     -19.458  24.070  24.196  0.00  0.00    -0.356 OA
ATOM     35  C   UNL d   1     -18.902  25.279  24.716  0.00  0.00     0.210 C 
ENDBRANCH  32  34
ENDBRANCH   6  27
TORSDOF 7
ENDMDL
