MODEL 1
REMARK VINA RESULT:     -12.1      0.000      0.000
REMARK  5 active torsions:
REMARK  status: ('A' for Active; 'I' for Inactive)
REMARK       I    between atoms: N_1  and  C_2 
REMARK    1  A    between atoms: C_2  and  C_4 
REMARK    2  A    between atoms: C_11  and  C_12 
REMARK    3  A    between atoms: C_15  and  C_16 
REMARK    4  A    between atoms: C_20  and  C_21 
REMARK    5  A    between atoms: C_21  and  N_22 
ROOT
ATOM      1  C   UNL d   1     -27.842  22.296  23.405  0.00  0.00     0.010 A 
ATOM      2  C   UNL d   1     -27.183  21.702  22.326  0.00  0.00     0.016 A 
ATOM      3  C   UNL d   1     -25.902  22.093  22.003  0.00  0.00     0.013 A 
ATOM      4  C   UNL d   1     -25.261  23.074  22.760  0.00  0.00    -0.025 A 
ATOM      5  C   UNL d   1     -25.916  23.663  23.840  0.00  0.00     0.013 A 
ATOM      6  C   UNL d   1     -27.198  23.278  24.162  0.00  0.00     0.016 A 
ENDROOT
BRANCH   1   7
ATOM      7  C   UNL d   1     -29.217  21.880  23.750  0.00  0.00     0.139 A 
ATOM      8  N   UNL d   1     -29.583  21.247  24.906  0.00  0.00    -0.338 N 
ATOM      9  C   UNL d   1     -30.947  21.036  24.839  0.00  0.00     0.064 A 
ATOM     10  H   UNL d   1     -28.996  20.994  25.635  0.00  0.00     0.167 HD
ATOM     11  C   UNL d   1     -31.872  20.452  25.691  0.00  0.00     0.032 A 
ATOM     12  C   UNL d   1     -31.364  21.567  23.604  0.00  0.00     0.101 A 
ATOM     13  C   UNL d   1     -33.205  20.390  25.332  0.00  0.00     0.003 A 
ATOM     14  C   UNL d   1     -33.636  20.906  24.125  0.00  0.00     0.020 A 
ATOM     15  C   UNL d   1     -32.729  21.498  23.249  0.00  0.00     0.062 A 
ATOM     16  N   UNL d   1     -30.275  22.069  22.995  0.00  0.00    -0.227 NA
BRANCH  15  17
ATOM     17  C   UNL d   1     -33.190  22.048  21.962  0.00  0.00     0.251 C 
ATOM     18  N   UNL d   1     -32.430  21.910  20.858  0.00  0.00    -0.366 N 
ATOM     19  H   UNL d   1     -31.578  21.449  20.911  0.00  0.00     0.159 HD
ATOM     20  H   UNL d   1     -32.734  22.272  20.011  0.00  0.00     0.159 HD
ATOM     21  O   UNL d   1     -34.258  22.627  21.896  0.00  0.00    -0.268 OA
ENDBRANCH  15  17
ENDBRANCH   1   7
BRANCH   4  22
ATOM     22  C   UNL d   1     -23.880  23.490  22.414  0.00  0.00    -0.008 A 
ATOM     23  C   UNL d   1     -22.949  23.765  23.421  0.00  0.00     0.024 A 
ATOM     24  C   UNL d   1     -21.671  24.145  23.046  0.00  0.00    -0.012 A 
ATOM     25  C   UNL d   1     -21.363  24.250  21.702  0.00  0.00     0.125 A 
ATOM     26  N   UNL d   1     -22.264  23.989  20.775  0.00  0.00    -0.272 NA
ATOM     27  C   UNL d   1     -23.491  23.619  21.083  0.00  0.00     0.128 A 
BRANCH  24  28
ATOM     28  C   UNL d   1     -20.629  24.447  24.092  0.00  0.00     0.312 C 
BRANCH  28  29
ATOM     29  N   UNL d   1     -20.421  25.900  24.171  0.00  0.00     0.092 N 
ATOM     30  C   UNL d   1     -21.707  26.613  24.272  0.00  0.00     0.273 C 
ATOM     31  C   UNL d   1     -21.658  27.465  25.558  0.00  0.00     0.032 C 
ATOM     32  C   UNL d   1     -20.136  27.626  25.813  0.00  0.00     0.032 C 
ATOM     33  C   UNL d   1     -19.594  26.252  25.345  0.00  0.00     0.273 C 
ENDBRANCH  28  29
ENDBRANCH  24  28
ENDBRANCH   4  22
TORSDOF 5
ENDMDL
