MODEL 1
REMARK VINA RESULT:     -10.5      0.000      0.000
REMARK  6 active torsions:
REMARK  status: ('A' for Active; 'I' for Inactive)
REMARK       I    between atoms: C_2  and  N_4 
REMARK    1  A    between atoms: N_4  and  C_5 
REMARK    2  A    between atoms: C_12  and  C_13 
REMARK    3  A    between atoms: C_13  and  C_14 
REMARK    4  A    between atoms: C_14  and  C_15 
REMARK    5  A    between atoms: CA_16  and  C_17 
REMARK    6  A    between atoms: C_17  and  OXT_19 
ROOT
ATOM      1  C   UNL d   1     -30.534  22.251  22.099  0.00  0.00     0.043 C 
ENDROOT
BRANCH   1   2
ATOM      2  C   UNL d   1     -29.041  22.123  21.942  0.00  0.00    -0.057 A 
ATOM      3  C   UNL d   1     -28.524  21.336  20.914  0.00  0.00     0.008 A 
ATOM      4  C   UNL d   1     -27.180  21.200  20.744  0.00  0.00     0.013 A 
ATOM      5  C   UNL d   1     -26.298  21.861  21.617  0.00  0.00    -0.024 A 
ATOM      6  C   UNL d   1     -24.906  21.744  21.471  0.00  0.00     0.012 A 
ATOM      7  C   UNL d   1     -26.825  22.660  22.661  0.00  0.00     0.001 A 
ATOM      8  C   UNL d   1     -24.075  22.396  22.330  0.00  0.00     0.003 A 
ATOM      9  C   UNL d   1     -24.580  23.183  23.360  0.00  0.00     0.030 A 
ATOM     10  C   UNL d   1     -25.940  23.324  23.537  0.00  0.00     0.045 A 
ATOM     11  C   UNL d   1     -28.216  22.777  22.806  0.00  0.00     0.021 A 
BRANCH  10  12
ATOM     12  N   UNL d   1     -26.437  24.116  24.573  0.00  0.00    -0.327 N 
ATOM     13  C   UNL d   1     -26.086  25.415  24.655  0.00  0.00     0.218 C 
ATOM     14  C   UNL d   1     -26.524  26.241  25.837  0.00  0.00     0.117 C 
ATOM     15  O   UNL d   1     -25.419  25.920  23.777  0.00  0.00    -0.274 OA
ATOM     16  H   UNL d   1     -27.035  23.733  25.233  0.00  0.00     0.169 HD
ENDBRANCH  10  12
ENDBRANCH   1   2
BRANCH   1  17
ATOM     17  C   UNL d   1     -30.860  22.709  23.522  0.00  0.00     0.051 C 
BRANCH  17  18
ATOM     18  C   UNL d   1     -31.198  21.510  24.369  0.00  0.00     0.044 A 
ATOM     19  C   UNL d   1     -30.272  21.038  25.408  0.00  0.00     0.258 A 
ATOM     20  N   UNL d   1     -30.617  19.962  26.146  0.00  0.00    -0.275 N 
ATOM     21  O   UNL d   1     -29.216  21.609  25.601  0.00  0.00    -0.267 OA
ATOM     22  C   UNL d   1     -31.782  19.330  25.926  0.00  0.00     0.327 A 
ATOM     23  H   UNL d   1     -30.017  19.642  26.838  0.00  0.00     0.173 HD
ATOM     24  N   UNL d   1     -32.642  19.740  24.980  0.00  0.00    -0.302 N 
ATOM     25  O   UNL d   1     -32.067  18.361  26.603  0.00  0.00    -0.247 OA
ATOM     26  CA  UNL d   1     -32.363  20.835  24.189  0.00  0.00     0.122 A 
ATOM     27  H   UNL d   1     -33.473  19.258  24.849  0.00  0.00     0.171 HD
BRANCH  26  28
ATOM     28  C   UNL d   1     -33.326  21.270  23.149  0.00  0.00     0.194 C 
ATOM     29  O   UNL d   1     -33.579  20.539  22.213  0.00  0.00    -0.645 OA
BRANCH  28  30
ATOM     30  OXT UNL d   1     -33.918  22.476  23.242  0.00  0.00    -0.772 OA
ATOM     31  HXT UNL d   1     -34.839  22.490  23.538  0.00  0.00     0.167 HD
ENDBRANCH  28  30
ENDBRANCH  26  28
ENDBRANCH  17  18
ENDBRANCH   1  17
TORSDOF 6
ENDMDL
