MODEL 1
REMARK VINA RESULT:      -9.6      0.000      0.000
REMARK  4 active torsions:
REMARK  status: ('A' for Active; 'I' for Inactive)
REMARK    1  A    between atoms: C_7  and  N_8 
REMARK    2  A    between atoms: C_10  and  C_11 
REMARK    3  A    between atoms: C_16  and  C_17 
REMARK    4  A    between atoms: C_20  and  C_21 
ROOT
ATOM      1  N   UNL d   1     -29.941  21.866  23.952  0.00  0.00    -0.288 N 
ATOM      2  C   UNL d   1     -29.360  22.155  25.155  0.00  0.00     0.109 A 
ATOM      3  C   UNL d   1     -28.072  22.517  25.262  0.00  0.00    -0.027 A 
ATOM      4  C   UNL d   1     -27.248  22.615  24.054  0.00  0.00    -0.011 A 
ATOM      5  C   UNL d   1     -25.908  22.992  24.106  0.00  0.00     0.030 A 
ATOM      6  C   UNL d   1     -25.177  23.068  22.928  0.00  0.00     0.034 A 
ATOM      7  C   UNL d   1     -25.778  22.769  21.698  0.00  0.00     0.130 A 
ATOM      8  F   UNL d   1     -25.052  22.848  20.562  0.00  0.00    -0.205 F 
ATOM      9  C   UNL d   1     -27.089  22.386  21.637  0.00  0.00     0.061 A 
ATOM     10  C   UNL d   1     -27.845  22.310  22.808  0.00  0.00     0.046 A 
ATOM     11  C   UNL d   1     -29.260  21.924  22.791  0.00  0.00     0.263 A 
ATOM     12  O   UNL d   1     -29.813  21.659  21.738  0.00  0.00    -0.267 OA
ENDROOT
BRANCH   6  13
ATOM     13  C   UNL d   1     -23.750  23.469  22.972  0.00  0.00     0.087 A 
ATOM     14  N   UNL d   1     -22.817  22.581  23.302  0.00  0.00    -0.257 NA
ATOM     15  C   UNL d   1     -21.548  22.941  23.335  0.00  0.00     0.144 A 
ATOM     16  C   UNL d   1     -21.187  24.245  23.038  0.00  0.00     0.056 A 
ATOM     17  N   UNL d   1     -22.111  25.134  22.716  0.00  0.00    -0.261 NA
ATOM     18  C   UNL d   1     -23.382  24.781  22.675  0.00  0.00     0.149 A 
BRANCH  16  19
ATOM     19  C   UNL d   1     -19.737  24.651  23.084  0.00  0.00     0.039 A 
ATOM     20  C   UNL d   1     -19.419  26.098  23.465  0.00  0.00     0.011 A 
ATOM     21  C   UNL d   1     -19.134  24.967  24.454  0.00  0.00     0.011 A 
ENDBRANCH  16  19
ENDBRANCH   6  13
BRANCH   3  22
ATOM     22  C   UNL d   1     -27.479  22.826  26.613  0.00  0.00     0.013 C 
ATOM     23  C   UNL d   1     -26.778  21.582  27.160  0.00  0.00     0.015 C 
ATOM     24  C   UNL d   1     -28.593  23.248  27.573  0.00  0.00     0.015 C 
ENDBRANCH   3  22
BRANCH   1  25
ATOM     25  C   UNL d   1     -31.292  21.495  23.925  0.00  0.00     0.048 A 
ATOM     26  C   UNL d   1     -31.786  20.596  24.861  0.00  0.00    -0.035 A 
ATOM     27  C   UNL d   1     -30.869  20.017  25.908  0.00  0.00     0.050 C 
ATOM     28  C   UNL d   1     -33.117  20.233  24.832  0.00  0.00     0.009 A 
ATOM     29  C   UNL d   1     -33.959  20.765  23.873  0.00  0.00     0.001 A 
ATOM     30  C   UNL d   1     -33.471  21.661  22.938  0.00  0.00     0.002 A 
ATOM     31  C   UNL d   1     -32.141  22.031  22.966  0.00  0.00     0.030 A 
ENDBRANCH   1  25
TORSDOF 4
ENDMDL
