MODEL 1
REMARK VINA RESULT:      -8.0      0.000      0.000
REMARK  7 active torsions:
REMARK  status: ('A' for Active; 'I' for Inactive)
REMARK    1  A    between atoms: C_2  and  C_4 
REMARK    2  A    between atoms: N_6  and  C_7 
REMARK    3  A    between atoms: C_19  and  O_20 
REMARK    4  A    between atoms: C_22  and  N_23 
REMARK    5  A    between atoms: C_25  and  C_26 
REMARK    6  A    between atoms: C_26  and  O_27 
REMARK    7  A    between atoms: N_28  and  C_29 
ROOT
ATOM      1  C   UNL d   1     -25.755  24.126  23.722  0.00  0.00     0.094 A 
ATOM      2  N   UNL d   1     -24.502  24.280  23.373  0.00  0.00    -0.163 NA
ATOM      3  N   UNL d   1     -23.953  23.649  22.255  0.00  0.00    -0.192 N 
ATOM      4  C   UNL d   1     -24.685  22.842  21.463  0.00  0.00     0.280 A 
ATOM      5  O   UNL d   1     -24.181  22.305  20.493  0.00  0.00    -0.265 OA
ATOM      6  C   UNL d   1     -26.100  22.619  21.784  0.00  0.00     0.049 A 
ATOM      7  C   UNL d   1     -26.909  21.794  21.002  0.00  0.00     0.057 A 
ATOM      8  C   UNL d   1     -28.234  21.616  21.346  0.00  0.00     0.098 A 
ATOM      9  C   UNL d   1     -28.768  22.255  22.471  0.00  0.00     0.098 A 
ATOM     10  C   UNL d   1     -27.977  23.079  23.252  0.00  0.00     0.049 A 
ATOM     11  C   UNL d   1     -26.637  23.264  22.921  0.00  0.00     0.013 A 
ENDROOT
BRANCH   9  12
ATOM     12  N   UNL d   1     -30.111  22.064  22.805  0.00  0.00    -0.178 N 
ATOM     13  C   UNL d   1     -30.586  21.606  23.982  0.00  0.00     0.351 A 
ATOM     14  N   UNL d   1     -31.930  21.570  23.888  0.00  0.00    -0.283 N 
ATOM     15  O   UNL d   1     -29.922  21.282  24.951  0.00  0.00    -0.244 OA
ATOM     16  C   UNL d   1     -32.289  22.019  22.641  0.00  0.00     0.154 A 
ATOM     17  N   UNL d   1     -31.217  22.318  21.980  0.00  0.00    -0.147 NA
BRANCH  14  18
ATOM     18  C   UNL d   1     -32.852  21.132  24.940  0.00  0.00     0.131 C 
ATOM     19  C   UNL d   1     -32.867  19.603  25.002  0.00  0.00     0.027 C 
ENDBRANCH  14  18
BRANCH  16  20
ATOM     20  C   UNL d   1     -33.700  22.141  22.126  0.00  0.00     0.244 C 
BRANCH  20  21
ATOM     21  O   UNL d   1     -33.684  22.168  20.696  0.00  0.00    -0.393 OA
ATOM     22  H   UNL d   1     -32.809  22.032  20.310  0.00  0.00     0.209 HD
ENDBRANCH  20  21
ENDBRANCH  16  20
ENDBRANCH   9  12
BRANCH   8  23
ATOM     23  O   UNL d   1     -29.025  20.813  20.586  0.00  0.00    -0.354 OA
ATOM     24  C   UNL d   1     -28.442  20.254  19.408  0.00  0.00     0.210 C 
ENDBRANCH   8  23
BRANCH   1  25
ATOM     25  C   UNL d   1     -26.281  24.817  24.915  0.00  0.00    -0.040 C 
ATOM     26  C   UNL d   1     -26.116  26.128  25.049  0.00  0.00     0.021 C 
ATOM     27  C   UNL d   1     -27.003  24.035  25.981  0.00  0.00     0.050 C 
ENDBRANCH   1  25
BRANCH   3  28
ATOM     28  C   UNL d   1     -22.604  23.863  21.948  0.00  0.00     0.122 A 
ATOM     29  C   UNL d   1     -21.611  23.320  22.754  0.00  0.00     0.066 A 
ATOM     30  C   UNL d   1     -20.280  23.529  22.444  0.00  0.00     0.026 A 
ATOM     31 CL   UNL d   1     -22.041  22.376  24.146  0.00  0.00    -0.082 Cl
ATOM     32  C   UNL d   1     -19.936  24.285  21.339  0.00  0.00     0.005 A 
ATOM     33  C   UNL d   1     -20.921  24.831  20.536  0.00  0.00     0.045 A 
ATOM     34  C   UNL d   1     -22.254  24.622  20.836  0.00  0.00     0.146 A 
ATOM     35  F   UNL d   1     -23.217  25.155  20.051  0.00  0.00    -0.204 F 
ENDBRANCH   3  28
TORSDOF 7
ENDMDL
