MODEL 1
REMARK VINA RESULT:      -8.8      0.000      0.000
REMARK  10 active torsions:
REMARK  status: ('A' for Active; 'I' for Inactive)
REMARK    1  A    between atoms: C_2  and  C_3 
REMARK    2  A    between atoms: N_5  and  C_6 
REMARK    3  A    between atoms: C_8  and  O_9 
REMARK    4  A    between atoms: O_9  and  C_10 
REMARK    5  A    between atoms: C_10  and  C_12 
REMARK    6  A    between atoms: C_18  and  C_19 
REMARK       I    between atoms: C_19  and  N_21 
REMARK    7  A    between atoms: N_21  and  C_22 
REMARK    8  A    between atoms: C_22  and  C_23 
REMARK    9  A    between atoms: C_22  and  C_25 
REMARK   10  A    between atoms: C_25  and  C_26 
ROOT
ATOM      1  C   UNL d   1     -22.750  24.813  23.264  0.00  0.00     0.104 A 
ATOM      2  C   UNL d   1     -21.464  24.536  23.706  0.00  0.00     0.073 A 
ATOM      3  C   UNL d   1     -20.843  25.383  24.607  0.00  0.00     0.087 A 
ATOM      4  C   UNL d   1     -21.520  26.519  25.077  0.00  0.00     0.068 A 
ATOM      5  C   UNL d   1     -22.814  26.794  24.623  0.00  0.00     0.064 A 
ATOM      6  C   UNL d   1     -23.422  25.945  23.724  0.00  0.00     0.146 A 
ATOM      7  F   UNL d   1     -24.674  26.209  23.290  0.00  0.00    -0.204 F 
ENDROOT
BRANCH   4   8
ATOM      8  C   UNL d   1     -20.868  27.421  26.041  0.00  0.00     0.254 C 
ATOM      9  O   UNL d   1     -21.323  28.532  26.240  0.00  0.00    -0.268 OA
ATOM     10  N   UNL d   1     -19.766  27.016  26.704  0.00  0.00    -0.352 N 
ATOM     11  H   UNL d   1     -19.404  26.130  26.546  0.00  0.00     0.163 HD
BRANCH  10  12
ATOM     12  C   UNL d   1     -19.116  27.913  27.663  0.00  0.00     0.088 C 
BRANCH  12  13
ATOM     13  C   UNL d   1     -18.439  29.060  26.909  0.00  0.00     0.021 C 
ATOM     14  C   UNL d   1     -16.996  29.208  27.393  0.00  0.00     0.007 C 
ENDBRANCH  12  13
BRANCH  12  15
ATOM     15  C   UNL d   1     -18.065  27.135  28.457  0.00  0.00     0.063 C 
BRANCH  15  16
ATOM     16  C   UNL d   1     -18.753  26.232  29.448  0.00  0.00    -0.056 A 
ATOM     17  C   UNL d   1     -18.004  25.392  30.253  0.00  0.00     0.007 A 
ATOM     18  C   UNL d   1     -18.633  24.563  31.162  0.00  0.00     0.001 A 
ATOM     19  C   UNL d   1     -20.012  24.574  31.268  0.00  0.00     0.000 A 
ATOM     20  C   UNL d   1     -20.760  25.413  30.465  0.00  0.00     0.001 A 
ATOM     21  C   UNL d   1     -20.130  26.247  29.559  0.00  0.00     0.007 A 
ENDBRANCH  15  16
ENDBRANCH  12  15
ENDBRANCH  10  12
ENDBRANCH   4   8
BRANCH   3  22
ATOM     22  O   UNL d   1     -19.586  25.112  25.041  0.00  0.00    -0.345 OA
BRANCH  22  23
ATOM     23  C   UNL d   1     -18.529  25.242  24.088  0.00  0.00     0.129 C 
ATOM     24  C   UNL d   1     -19.097  25.757  22.763  0.00  0.00     0.040 C 
BRANCH  23  25
ATOM     25  C   UNL d   1     -17.487  26.230  24.614  0.00  0.00     0.015 C 
ATOM     26  C   UNL d   1     -16.309  25.459  25.214  0.00  0.00     0.007 C 
ATOM     27  C   UNL d   1     -15.267  26.448  25.741  0.00  0.00     0.000 C 
ATOM     28  C   UNL d   1     -14.770  27.325  24.591  0.00  0.00     0.000 C 
ATOM     29  C   UNL d   1     -15.946  28.097  23.992  0.00  0.00     0.000 C 
ATOM     30  C   UNL d   1     -16.989  27.108  23.464  0.00  0.00     0.007 C 
ENDBRANCH  23  25
ENDBRANCH  22  23
ENDBRANCH   3  22
BRANCH   1  31
ATOM     31  N   UNL d   1     -23.373  23.956  22.355  0.00  0.00    -0.178 N 
ATOM     32  N   UNL d   1     -24.186  22.858  22.670  0.00  0.00    -0.149 NA
ATOM     33  C   UNL d   1     -24.576  22.314  21.562  0.00  0.00     0.130 A 
ATOM     34  N   UNL d   1     -24.047  23.022  20.510  0.00  0.00    -0.289 N 
ATOM     35  C   UNL d   1     -23.311  24.035  21.009  0.00  0.00     0.351 A 
ATOM     36  C   UNL d   1     -24.252  22.729  19.090  0.00  0.00     0.162 C 
ATOM     37  O   UNL d   1     -22.700  24.868  20.364  0.00  0.00    -0.244 OA
BRANCH  33  38
ATOM     38  C   UNL d   1     -25.467  21.104  21.444  0.00  0.00     0.076 C 
ATOM     39  C   UNL d   1     -26.929  21.552  21.385  0.00  0.00     0.013 C 
ENDBRANCH  33  38
ENDBRANCH   1  31
TORSDOF 10
ENDMDL
