MODEL 1
REMARK VINA RESULT:     -12.2      0.000      0.000
REMARK  3 active torsions:
REMARK  status: ('A' for Active; 'I' for Inactive)
REMARK    1  A    between atoms: C_3  and  C_4 
REMARK       I    between atoms: C_4  and  N_6 
REMARK    2  A    between atoms: N_6  and  C_7 
REMARK    3  A    between atoms: N_15  and  C_16 
ROOT
ATOM      1  C   UNL d   1     -26.078  22.086  22.532  0.00  0.00     0.121 C 
ATOM      2  C   UNL d   1     -26.424  22.190  21.042  0.00  0.00     0.030 C 
ATOM      3  C   UNL d   1     -27.505  21.162  20.693  0.00  0.00     0.008 C 
ATOM      4  C   UNL d   1     -28.835  21.583  21.330  0.00  0.00     0.060 C 
ATOM      5  C   UNL d   1     -28.591  21.892  22.786  0.00  0.00     0.046 A 
ATOM      6  C   UNL d   1     -27.363  22.112  23.322  0.00  0.00     0.008 A 
ATOM      7  C   UNL d   1     -27.526  22.359  24.683  0.00  0.00     0.150 A 
ATOM      8  N   UNL d   1     -28.806  22.296  24.958  0.00  0.00    -0.179 NA
ATOM      9  N   UNL d   1     -29.498  21.997  23.775  0.00  0.00    -0.237 N 
ENDROOT
BRANCH   1  10
ATOM     10  N   UNL d   1     -25.234  23.217  22.924  0.00  0.00    -0.346 N 
ATOM     11  C   UNL d   1     -23.892  23.102  22.880  0.00  0.00     0.275 C 
ATOM     12  O   UNL d   1     -23.382  22.061  22.516  0.00  0.00    -0.265 OA
ATOM     13  H   UNL d   1     -25.641  24.048  23.215  0.00  0.00     0.163 HD
BRANCH  11  14
ATOM     14  C   UNL d   1     -23.042  24.241  23.274  0.00  0.00     0.140 C 
ATOM     15  C   UNL d   1     -23.519  25.447  23.659  0.00  0.00    -0.034 C 
ATOM     16  C   UNL d   1     -24.961  25.865  23.779  0.00  0.00     0.047 C 
ATOM     17  C   UNL d   1     -22.304  26.277  23.942  0.00  0.00     0.073 C 
ATOM     18  C   UNL d   1     -21.295  25.136  24.298  0.00  0.00     0.164 C 
ATOM     19  C   UNL d   1     -22.302  27.200  25.112  0.00  0.00    -0.015 C 
ATOM     20  O   UNL d   1     -21.662  24.208  23.288  0.00  0.00    -0.335 OA
ATOM     21  C   UNL d   1     -19.948  25.771  24.292  0.00  0.00     0.006 C 
ATOM     22  C   UNL d   1     -19.875  26.954  24.935  0.00  0.00    -0.002 C 
ATOM     23  C   UNL d   1     -21.078  27.510  25.588  0.00  0.00    -0.003 C 
ENDBRANCH  11  14
ENDBRANCH   1  10
BRANCH   9  24
ATOM     24  C   UNL d   1     -30.885  21.842  23.644  0.00  0.00     0.064 A 
ATOM     25  C   UNL d   1     -31.594  21.110  24.587  0.00  0.00    -0.033 A 
ATOM     26  C   UNL d   1     -32.961  20.960  24.456  0.00  0.00     0.009 A 
ATOM     27  C   UNL d   1     -30.874  20.480  25.751  0.00  0.00     0.050 C 
ATOM     28  C   UNL d   1     -33.623  21.541  23.390  0.00  0.00     0.001 A 
ATOM     29  C   UNL d   1     -32.918  22.267  22.447  0.00  0.00     0.002 A 
ATOM     30  C   UNL d   1     -31.551  22.420  22.572  0.00  0.00     0.032 A 
ENDBRANCH   9  24
TORSDOF 3
ENDMDL
