MODEL 1
REMARK VINA RESULT:     -10.4      0.000      0.000
REMARK  6 active torsions:
REMARK  status: ('A' for Active; 'I' for Inactive)
REMARK    1  A    between atoms: C_2  and  C_4 
REMARK    2  A    between atoms: N_6  and  C_7 
REMARK    3  A    between atoms: C_19  and  N_20 
REMARK    4  A    between atoms: C_22  and  C_23 
REMARK    5  A    between atoms: C_23  and  O_24 
REMARK    6  A    between atoms: N_25  and  C_26 
ROOT
ATOM      1  C   UNL d   1     -25.951  23.919  23.863  0.00  0.00    -0.004 A 
ATOM      2  C   UNL d   1     -24.651  24.100  23.512  0.00  0.00     0.113 A 
ATOM      3  N   UNL d   1     -24.116  23.529  22.394  0.00  0.00    -0.288 N 
ATOM      4  C   UNL d   1     -24.837  22.750  21.566  0.00  0.00     0.263 A 
ATOM      5  O   UNL d   1     -24.317  22.260  20.578  0.00  0.00    -0.267 OA
ATOM      6  C   UNL d   1     -26.250  22.494  21.858  0.00  0.00     0.044 A 
ATOM      7  C   UNL d   1     -27.040  21.693  21.031  0.00  0.00     0.020 A 
ATOM      8  C   UNL d   1     -28.352  21.482  21.344  0.00  0.00     0.033 A 
ATOM      9  C   UNL d   1     -28.916  22.059  22.483  0.00  0.00     0.064 A 
ATOM     10  C   UNL d   1     -28.152  22.857  23.320  0.00  0.00     0.045 A 
ATOM     11  C   UNL d   1     -26.812  23.076  23.017  0.00  0.00    -0.006 A 
ENDROOT
BRANCH   9  12
ATOM     12  N   UNL d   1     -30.261  21.829  22.783  0.00  0.00    -0.181 N 
ATOM     13  C   UNL d   1     -31.301  21.954  21.934  0.00  0.00     0.351 A 
ATOM     14  N   UNL d   1     -32.419  21.638  22.617  0.00  0.00    -0.283 N 
ATOM     15  O   UNL d   1     -31.242  22.287  20.764  0.00  0.00    -0.244 OA
ATOM     16  C   UNL d   1     -32.064  21.323  23.905  0.00  0.00     0.154 A 
ATOM     17  N   UNL d   1     -30.780  21.431  24.023  0.00  0.00    -0.147 NA
BRANCH  14  18
ATOM     18  C   UNL d   1     -33.782  21.637  22.078  0.00  0.00     0.131 C 
ATOM     19  C   UNL d   1     -34.119  20.245  21.543  0.00  0.00     0.027 C 
ENDBRANCH  14  18
BRANCH  16  20
ATOM     20  C   UNL d   1     -33.013  20.917  25.003  0.00  0.00     0.244 C 
BRANCH  20  21
ATOM     21  O   UNL d   1     -32.284  20.722  26.216  0.00  0.00    -0.393 OA
ATOM     22  H   UNL d   1     -32.526  21.334  26.924  0.00  0.00     0.209 HD
ENDBRANCH  20  21
ENDBRANCH  16  20
ENDBRANCH   9  12
BRANCH   1  23
ATOM     23  C   UNL d   1     -26.491  24.554  25.081  0.00  0.00    -0.059 C 
ATOM     24  C   UNL d   1     -26.376  25.866  25.252  0.00  0.00     0.019 C 
ATOM     25  C   UNL d   1     -27.172  23.714  26.131  0.00  0.00     0.048 C 
ENDBRANCH   1  23
BRANCH   3  26
ATOM     26  C   UNL d   1     -22.768  23.763  22.098  0.00  0.00     0.045 A 
ATOM     27  C   UNL d   1     -22.421  24.496  20.972  0.00  0.00     0.072 A 
ATOM     28  C   UNL d   1     -21.088  24.730  20.684  0.00  0.00     0.118 A 
ATOM     29  C   UNL d   1     -20.101  24.224  21.515  0.00  0.00     0.042 A 
ATOM     30  F   UNL d   1     -20.748  25.448  19.592  0.00  0.00    -0.206 F 
ATOM     31  C   UNL d   1     -20.447  23.488  22.634  0.00  0.00     0.005 A 
ATOM     32  C   UNL d   1     -21.776  23.257  22.927  0.00  0.00     0.030 A 
ENDBRANCH   3  26
TORSDOF 6
ENDMDL
