MODEL 1
REMARK VINA RESULT:     -10.2      0.000      0.000
REMARK  6 active torsions:
REMARK  status: ('A' for Active; 'I' for Inactive)
REMARK    1  A    between atoms: O_2  and  C_3 
REMARK    2  A    between atoms: C_7  and  C_8 
REMARK    3  A    between atoms: C_11  and  N_12 
REMARK       I    between atoms: N_12  and  C_13 
REMARK    4  A    between atoms: C_13  and  C_15 
REMARK    5  A    between atoms: C_16  and  C_17 
REMARK    6  A    between atoms: C_17  and  O_19 
ROOT
ATOM      1  C   UNL d   1     -28.420  22.349  23.588  0.00  0.00    -0.023 A 
ATOM      2  C   UNL d   1     -27.778  22.944  24.674  0.00  0.00     0.014 A 
ATOM      3  C   UNL d   1     -26.432  23.233  24.604  0.00  0.00     0.034 A 
ATOM      4  C   UNL d   1     -25.714  22.933  23.454  0.00  0.00     0.074 A 
ATOM      5  C   UNL d   1     -26.350  22.334  22.370  0.00  0.00     0.143 A 
ATOM      6  F   UNL d   1     -25.649  22.038  21.255  0.00  0.00    -0.204 F 
ATOM      7  C   UNL d   1     -27.699  22.047  22.434  0.00  0.00     0.057 A 
ENDROOT
BRANCH   4   8
ATOM      8  N   UNL d   1     -24.350  23.229  23.386  0.00  0.00    -0.321 N 
ATOM      9  C   UNL d   1     -23.943  24.504  23.230  0.00  0.00     0.253 C 
ATOM     10  O   UNL d   1     -24.756  25.408  23.250  0.00  0.00    -0.268 OA
ATOM     11  H   UNL d   1     -23.696  22.516  23.452  0.00  0.00     0.169 HD
BRANCH   9  12
ATOM     12  C   UNL d   1     -22.511  24.804  23.034  0.00  0.00     0.033 C 
ATOM     13  C   UNL d   1     -21.625  25.219  24.189  0.00  0.00     0.119 C 
ATOM     14  S   UNL d   1     -19.933  24.960  23.515  0.00  0.00    -0.159 SA
ATOM     15  C   UNL d   1     -20.470  25.058  21.760  0.00  0.00     0.120 C 
ATOM     16  C   UNL d   1     -21.945  24.728  21.841  0.00  0.00     0.037 C 
BRANCH  16  17
ATOM     17  C   UNL d   1     -22.715  24.339  20.645  0.00  0.00     0.173 C 
ATOM     18  O   UNL d   1     -23.072  23.187  20.500  0.00  0.00    -0.646 OA
BRANCH  17  19
ATOM     19  O   UNL d   1     -23.024  25.264  19.713  0.00  0.00    -0.773 OA
ATOM     20  H   UNL d   1     -23.964  25.406  19.531  0.00  0.00     0.167 HD
ENDBRANCH  17  19
ENDBRANCH  16  17
ENDBRANCH   9  12
ENDBRANCH   4   8
BRANCH   1  21
ATOM     21  C   UNL d   1     -29.868  22.036  23.663  0.00  0.00    -0.023 A 
ATOM     22  C   UNL d   1     -30.711  22.372  22.605  0.00  0.00     0.012 A 
ATOM     23  C   UNL d   1     -32.057  22.076  22.674  0.00  0.00     0.004 A 
ATOM     24  C   UNL d   1     -32.576  21.456  23.796  0.00  0.00     0.037 A 
ATOM     25  C   UNL d   1     -31.744  21.123  24.857  0.00  0.00     0.069 A 
ATOM     26  C   UNL d   1     -30.392  21.412  24.793  0.00  0.00     0.049 A 
BRANCH  25  27
ATOM     27  O   UNL d   1     -32.259  20.514  25.957  0.00  0.00    -0.356 OA
ATOM     28  C   UNL d   1     -32.050  19.105  26.076  0.00  0.00     0.210 C 
ENDBRANCH  25  27
ENDBRANCH   1  21
TORSDOF 6
ENDMDL
