MODEL 1
REMARK VINA RESULT:     -12.2      0.000      0.000
REMARK  6 active torsions:
REMARK  status: ('A' for Active; 'I' for Inactive)
REMARK    1  A    between atoms: C_2  and  O_3 
REMARK    2  A    between atoms: C_2  and  C_4 
REMARK    3  A    between atoms: C_5  and  C_6 
REMARK       I    between atoms: C_6  and  N_8 
REMARK    4  A    between atoms: N_8  and  C_9 
REMARK    5  A    between atoms: C_12  and  C_13 
REMARK    6  A    between atoms: C_24  and  C_25 
ROOT
ATOM      1  C   UNL d   1     -25.528  23.111  23.575  0.00  0.00     0.050 A 
ATOM      2  C   UNL d   1     -26.247  23.616  24.653  0.00  0.00     0.031 A 
ATOM      3  C   UNL d   1     -27.579  23.297  24.805  0.00  0.00     0.014 A 
ATOM      4  C   UNL d   1     -28.203  22.457  23.882  0.00  0.00    -0.024 A 
ATOM      5  C   UNL d   1     -27.480  21.952  22.801  0.00  0.00     0.030 A 
ATOM      6  C   UNL d   1     -26.150  22.278  22.650  0.00  0.00     0.075 A 
ENDROOT
BRANCH   1   7
ATOM      7  N   UNL d   1     -24.180  23.440  23.420  0.00  0.00    -0.322 N 
ATOM      8  C   UNL d   1     -23.816  24.728  23.261  0.00  0.00     0.253 C 
ATOM      9  O   UNL d   1     -24.645  25.612  23.355  0.00  0.00    -0.268 OA
ATOM     10  H   UNL d   1     -23.507  22.743  23.427  0.00  0.00     0.169 HD
BRANCH   8  11
ATOM     11  C   UNL d   1     -22.407  25.066  22.973  0.00  0.00     0.023 C 
ATOM     12  C   UNL d   1     -21.834  24.986  21.766  0.00  0.00     0.027 C 
ATOM     13  C   UNL d   1     -20.385  25.408  21.837  0.00  0.00     0.046 C 
ATOM     14  C   UNL d   1     -20.029  25.355  23.340  0.00  0.00     0.010 C 
ATOM     15  C   UNL d   1     -21.414  25.558  24.001  0.00  0.00     0.045 C 
BRANCH  12  16
ATOM     16  C   UNL d   1     -22.522  24.547  20.537  0.00  0.00     0.172 C 
ATOM     17  O   UNL d   1     -22.722  23.364  20.343  0.00  0.00    -0.646 OA
BRANCH  16  18
ATOM     18  O   UNL d   1     -22.929  25.456  19.630  0.00  0.00    -0.773 OA
ATOM     19  H   UNL d   1     -22.908  25.190  18.701  0.00  0.00     0.167 HD
ENDBRANCH  16  18
ENDBRANCH  12  16
ENDBRANCH   8  11
ENDBRANCH   1   7
BRANCH   6  20
ATOM     20  C   UNL d   1     -25.368  21.733  21.483  0.00  0.00     0.419 C 
ATOM     21  F   UNL d   1     -24.171  21.175  21.943  0.00  0.00    -0.166 F 
ATOM     22  F   UNL d   1     -26.123  20.748  20.836  0.00  0.00    -0.166 F 
ATOM     23  F   UNL d   1     -25.086  22.769  20.586  0.00  0.00    -0.166 F 
ENDBRANCH   6  20
BRANCH   4  24
ATOM     24  C   UNL d   1     -29.632  22.107  24.046  0.00  0.00    -0.015 A 
ATOM     25  C   UNL d   1     -30.497  22.087  22.924  0.00  0.00    -0.015 A 
ATOM     26  C   UNL d   1     -31.861  21.751  23.108  0.00  0.00    -0.025 A 
ATOM     27  C   UNL d   1     -30.029  22.395  21.639  0.00  0.00     0.013 A 
ATOM     28  C   UNL d   1     -32.331  21.443  24.395  0.00  0.00     0.012 A 
ATOM     29  C   UNL d   1     -32.720  21.731  21.995  0.00  0.00     0.012 A 
ATOM     30  C   UNL d   1     -31.479  21.468  25.458  0.00  0.00     0.002 A 
ATOM     31  C   UNL d   1     -30.138  21.796  25.296  0.00  0.00     0.013 A 
ATOM     32  C   UNL d   1     -32.232  22.035  20.762  0.00  0.00     0.001 A 
ATOM     33  C   UNL d   1     -30.890  22.367  20.584  0.00  0.00     0.001 A 
ENDBRANCH   4  24
TORSDOF 6
ENDMDL
