MODEL 1
REMARK VINA RESULT:     -12.3      0.000      0.000
REMARK  4 active torsions:
REMARK  status: ('A' for Active; 'I' for Inactive)
REMARK    1  A    between atoms: C_3  and  C_4 
REMARK    2  A    between atoms: C_7  and  C_8 
REMARK    3  A    between atoms: C_25  and  C_26 
REMARK    4  A    between atoms: C_26  and  O_28 
ROOT
ATOM      1  C   UNL d   1     -27.886  21.883  25.569  0.00  0.00     0.052 C 
ATOM      2  C   UNL d   1     -28.800  21.978  24.375  0.00  0.00    -0.015 A 
ATOM      3  C   UNL d   1     -28.300  22.396  23.131  0.00  0.00     0.074 A 
ATOM      4  N   UNL d   1     -29.063  22.488  22.061  0.00  0.00    -0.247 NA
ATOM      5  C   UNL d   1     -30.363  22.193  22.085  0.00  0.00     0.069 A 
ATOM      6  C   UNL d   1     -31.151  22.300  20.924  0.00  0.00     0.035 A 
ATOM      7  C   UNL d   1     -32.476  21.994  20.977  0.00  0.00     0.044 A 
ATOM      8  C   UNL d   1     -33.070  21.571  22.168  0.00  0.00     0.117 A 
ATOM      9  F   UNL d   1     -34.387  21.274  22.187  0.00  0.00    -0.206 F 
ATOM     10  C   UNL d   1     -32.335  21.457  23.313  0.00  0.00     0.057 A 
ATOM     11  C   UNL d   1     -30.971  21.765  23.292  0.00  0.00     0.013 A 
ATOM     12  C   UNL d   1     -30.145  21.656  24.494  0.00  0.00     0.058 A 
ENDROOT
BRANCH   3  13
ATOM     13  C   UNL d   1     -26.864  22.742  23.018  0.00  0.00    -0.007 A 
ATOM     14  C   UNL d   1     -26.009  21.936  22.266  0.00  0.00     0.014 A 
ATOM     15  C   UNL d   1     -24.675  22.262  22.156  0.00  0.00     0.013 A 
ATOM     16  C   UNL d   1     -24.177  23.392  22.805  0.00  0.00    -0.023 A 
ATOM     17  C   UNL d   1     -25.032  24.198  23.557  0.00  0.00     0.013 A 
ATOM     18  C   UNL d   1     -26.367  23.876  23.662  0.00  0.00     0.014 A 
BRANCH  16  19
ATOM     19  C   UNL d   1     -22.740  23.739  22.692  0.00  0.00     0.015 A 
ATOM     20  C   UNL d   1     -22.202  24.144  21.470  0.00  0.00     0.136 A 
ATOM     21  N   UNL d   1     -20.924  24.452  21.370  0.00  0.00    -0.248 NA
ATOM     22 CL   UNL d   1     -23.224  24.243  20.071  0.00  0.00    -0.061 Cl
ATOM     23  C   UNL d   1     -20.110  24.392  22.406  0.00  0.00     0.118 A 
ATOM     24  C   UNL d   1     -20.568  23.999  23.651  0.00  0.00     0.020 A 
ATOM     25  C   UNL d   1     -21.902  23.665  23.808  0.00  0.00     0.017 A 
ENDBRANCH  16  19
ENDBRANCH   3  13
BRANCH  12  26
ATOM     26  C   UNL d   1     -30.718  21.217  25.784  0.00  0.00     0.177 C 
ATOM     27  O   UNL d   1     -31.321  22.008  26.481  0.00  0.00    -0.646 OA
BRANCH  26  28
ATOM     28  O   UNL d   1     -30.570  19.940  26.186  0.00  0.00    -0.773 OA
ATOM     29  H   UNL d   1     -30.428  19.276  25.496  0.00  0.00     0.167 HD
ENDBRANCH  26  28
ENDBRANCH  12  26
TORSDOF 4
ENDMDL
