MODEL 1
REMARK VINA RESULT:      -9.0      0.000      0.000
REMARK  7 active torsions:
REMARK  status: ('A' for Active; 'I' for Inactive)
REMARK    1  A    between atoms: C_2  and  C_3 
REMARK    2  A    between atoms: N_5  and  C_6 
REMARK    3  A    between atoms: C_8  and  O_9 
REMARK    4  A    between atoms: O_9  and  C_10 
REMARK    5  A    between atoms: C_10  and  C_12 
REMARK    6  A    between atoms: C_18  and  C_19 
REMARK       I    between atoms: C_19  and  N_21 
REMARK    7  A    between atoms: N_21  and  C_22 
ROOT
ATOM      1  C   UNL d   1     -28.475  22.156  22.685  0.00  0.00     0.104 A 
ATOM      2  C   UNL d   1     -27.692  22.880  23.575  0.00  0.00     0.073 A 
ATOM      3  C   UNL d   1     -26.333  23.012  23.351  0.00  0.00     0.087 A 
ATOM      4  C   UNL d   1     -25.749  22.412  22.226  0.00  0.00     0.068 A 
ATOM      5  C   UNL d   1     -26.545  21.684  21.335  0.00  0.00     0.064 A 
ATOM      6  C   UNL d   1     -27.896  21.555  21.569  0.00  0.00     0.146 A 
ATOM      7  F   UNL d   1     -28.663  20.846  20.711  0.00  0.00    -0.204 F 
ENDROOT
BRANCH   4   8
ATOM      8  C   UNL d   1     -24.303  22.548  21.983  0.00  0.00     0.259 C 
ATOM      9  O   UNL d   1     -23.648  21.579  21.650  0.00  0.00    -0.267 OA
ATOM     10  N   UNL d   1     -23.704  23.748  22.131  0.00  0.00    -0.318 N 
ATOM     11  H   UNL d   1     -24.209  24.502  22.473  0.00  0.00     0.169 HD
BRANCH  10  12
ATOM     12  C   UNL d   1     -22.354  23.904  21.790  0.00  0.00     0.113 A 
ATOM     13  C   UNL d   1     -22.004  24.504  20.587  0.00  0.00     0.146 A 
ATOM     14  C   UNL d   1     -20.670  24.658  20.254  0.00  0.00     0.045 A 
ATOM     15  F   UNL d   1     -22.966  24.941  19.743  0.00  0.00    -0.204 F 
ATOM     16  C   UNL d   1     -19.686  24.213  21.116  0.00  0.00     0.006 A 
ATOM     17  C   UNL d   1     -20.030  23.614  22.314  0.00  0.00     0.045 A 
ATOM     18  C   UNL d   1     -21.361  23.463  22.656  0.00  0.00     0.146 A 
ATOM     19  F   UNL d   1     -21.696  22.882  23.830  0.00  0.00    -0.204 F 
ENDBRANCH  10  12
ENDBRANCH   4   8
BRANCH   3  20
ATOM     20  O   UNL d   1     -25.566  23.721  24.220  0.00  0.00    -0.341 OA
BRANCH  20  21
ATOM     21  C   UNL d   1     -25.689  25.143  24.181  0.00  0.00     0.158 C 
ATOM     22  C   UNL d   1     -26.455  25.624  25.415  0.00  0.00     0.045 C 
BRANCH  21  23
ATOM     23  C   UNL d   1     -24.317  25.765  24.167  0.00  0.00    -0.029 A 
ATOM     24  C   UNL d   1     -23.997  26.715  23.214  0.00  0.00     0.010 A 
ATOM     25  C   UNL d   1     -22.737  27.286  23.201  0.00  0.00     0.001 A 
ATOM     26  C   UNL d   1     -21.799  26.907  24.143  0.00  0.00     0.000 A 
ATOM     27  C   UNL d   1     -22.118  25.959  25.097  0.00  0.00     0.001 A 
ATOM     28  C   UNL d   1     -23.379  25.391  25.111  0.00  0.00     0.010 A 
ENDBRANCH  21  23
ENDBRANCH  20  21
ENDBRANCH   3  20
BRANCH   1  29
ATOM     29  N   UNL d   1     -29.846  22.023  22.914  0.00  0.00    -0.178 N 
ATOM     30  N   UNL d   1     -30.873  22.322  22.007  0.00  0.00    -0.149 NA
ATOM     31  C   UNL d   1     -32.004  22.064  22.580  0.00  0.00     0.130 A 
ATOM     32  N   UNL d   1     -31.763  21.608  23.854  0.00  0.00    -0.289 N 
ATOM     33  C   UNL d   1     -30.429  21.583  24.048  0.00  0.00     0.351 A 
ATOM     34  C   UNL d   1     -32.780  21.212  24.830  0.00  0.00     0.162 C 
ATOM     35  O   UNL d   1     -29.855  21.228  25.063  0.00  0.00    -0.244 OA
BRANCH  31  36
ATOM     36  C   UNL d   1     -33.364  22.238  21.956  0.00  0.00     0.076 C 
ATOM     37  C   UNL d   1     -33.744  20.966  21.197  0.00  0.00     0.013 C 
ENDBRANCH  31  36
ENDBRANCH   1  29
TORSDOF 7
ENDMDL
