MODEL 1
REMARK VINA RESULT:     -10.3      0.000      0.000
REMARK  8 active torsions:
REMARK  status: ('A' for Active; 'I' for Inactive)
REMARK    1  A    between atoms: C_2  and  C_3 
REMARK    2  A    between atoms: C_3  and  C_4 
REMARK    3  A    between atoms: C_4  and  O_6 
REMARK    4  A    between atoms: O_6  and  C_7 
REMARK    5  A    between atoms: C_9  and  N_10 
REMARK    6  A    between atoms: C_23  and  C_24 
REMARK       I    between atoms: C_24  and  N_26 
REMARK    7  A    between atoms: N_26  and  C_27 
REMARK    8  A    between atoms: C_33  and  N_34 
ROOT
ATOM      1  C   UNL d   1     -26.227  23.168  23.230  0.00  0.00     0.087 A 
ATOM      2  C   UNL d   1     -27.599  23.022  23.334  0.00  0.00     0.073 A 
ATOM      3  C   UNL d   1     -28.281  22.205  22.444  0.00  0.00     0.104 A 
ATOM      4  C   UNL d   1     -27.589  21.537  21.433  0.00  0.00     0.146 A 
ATOM      5  F   UNL d   1     -28.261  20.749  20.565  0.00  0.00    -0.204 F 
ATOM      6  C   UNL d   1     -26.226  21.680  21.316  0.00  0.00     0.064 A 
ATOM      7  C   UNL d   1     -25.530  22.497  22.214  0.00  0.00     0.068 A 
ENDROOT
BRANCH   7   8
ATOM      8  C   UNL d   1     -24.070  22.653  22.093  0.00  0.00     0.259 C 
ATOM      9  O   UNL d   1     -23.364  21.673  21.945  0.00  0.00    -0.267 OA
ATOM     10  N   UNL d   1     -23.516  23.880  22.147  0.00  0.00    -0.320 N 
ATOM     11  H   UNL d   1     -24.068  24.653  22.346  0.00  0.00     0.169 HD
BRANCH  10  12
ATOM     12  C   UNL d   1     -22.144  24.041  21.916  0.00  0.00     0.067 A 
ATOM     13  C   UNL d   1     -21.688  24.436  20.658  0.00  0.00     0.053 A 
ATOM     14  C   UNL d   1     -20.328  24.593  20.436  0.00  0.00     0.031 A 
ATOM     15  C   UNL d   1     -19.429  24.359  21.460  0.00  0.00     0.003 A 
ATOM     16  C   UNL d   1     -19.881  23.968  22.706  0.00  0.00     0.009 A 
ATOM     17  C   UNL d   1     -21.235  23.813  22.939  0.00  0.00    -0.033 A 
ATOM     18  C   UNL d   1     -21.723  23.392  24.300  0.00  0.00     0.050 C 
BRANCH  13  19
ATOM     19  N   UNL d   1     -22.600  24.671  19.624  0.00  0.00    -0.397 N 
ATOM     20  H   UNL d   1     -22.797  23.972  18.981  0.00  0.00     0.156 HD
ATOM     21  H   UNL d   1     -23.036  25.535  19.550  0.00  0.00     0.156 HD
ENDBRANCH  13  19
ENDBRANCH  10  12
ENDBRANCH   7   8
BRANCH   1  22
ATOM     22  O   UNL d   1     -25.558  23.961  24.104  0.00  0.00    -0.345 OA
BRANCH  22  23
ATOM     23  C   UNL d   1     -25.908  25.347  24.121  0.00  0.00     0.124 C 
ATOM     24  C   UNL d   1     -26.287  25.760  25.544  0.00  0.00     0.040 C 
BRANCH  23  25
ATOM     25  C   UNL d   1     -24.713  26.180  23.648  0.00  0.00     0.032 C 
BRANCH  25  26
ATOM     26  C   UNL d   1     -23.689  26.290  24.779  0.00  0.00    -0.002 C 
ATOM     27  C   UNL d   1     -22.452  27.036  24.275  0.00  0.00     0.005 C 
ENDBRANCH  25  26
ENDBRANCH  23  25
ENDBRANCH  22  23
ENDBRANCH   1  22
BRANCH   3  28
ATOM     28  N   UNL d   1     -29.665  22.056  22.556  0.00  0.00    -0.178 N 
ATOM     29  C   UNL d   1     -30.345  21.700  23.667  0.00  0.00     0.351 A 
ATOM     30  N   UNL d   1     -31.651  21.703  23.356  0.00  0.00    -0.284 N 
ATOM     31  O   UNL d   1     -29.861  21.427  24.751  0.00  0.00    -0.244 OA
ATOM     32  C   UNL d   1     -31.780  22.026  22.021  0.00  0.00     0.131 A 
ATOM     33  C   UNL d   1     -32.783  21.436  24.252  0.00  0.00     0.135 C 
ATOM     34  N   UNL d   1     -30.607  22.246  21.532  0.00  0.00    -0.149 NA
ATOM     35  C   UNL d   1     -33.104  22.091  21.297  0.00  0.00     0.081 C 
ATOM     36  C   UNL d   1     -34.216  22.197  22.349  0.00  0.00     0.009 C 
ATOM     37  C   UNL d   1     -34.014  21.103  23.401  0.00  0.00     0.021 C 
ENDBRANCH   3  28
TORSDOF 8
ENDMDL
