MODEL 1
REMARK VINA RESULT:     -10.0      0.000      0.000
REMARK  6 active torsions:
REMARK  status: ('A' for Active; 'I' for Inactive)
REMARK    1  A    between atoms: C_2  and  O_3 
REMARK    2  A    between atoms: C_2  and  C_32 
REMARK    3  A    between atoms: O_3  and  C_4 
REMARK    4  A    between atoms: C_6  and  N_7 
REMARK    5  A    between atoms: C_20  and  C_21 
REMARK       I    between atoms: C_21  and  N_23 
REMARK    6  A    between atoms: N_23  and  C_24 
ROOT
ATOM      1  C   UNL d   1     -24.522  23.394  22.638  0.00  0.00     0.087 A 
ATOM      2  C   UNL d   1     -25.776  22.847  22.844  0.00  0.00     0.071 A 
ATOM      3  C   UNL d   1     -26.601  23.353  23.839  0.00  0.00     0.088 A 
ATOM      4  C   UNL d   1     -26.167  24.406  24.642  0.00  0.00     0.064 A 
ATOM      5 CL   UNL d   1     -27.203  25.028  25.888  0.00  0.00    -0.082 Cl
ATOM      6  C   UNL d   1     -24.920  24.955  24.449  0.00  0.00     0.046 A 
ATOM      7  C   UNL d   1     -24.084  24.455  23.445  0.00  0.00     0.067 A 
ENDROOT
BRANCH   7   8
ATOM      8  C   UNL d   1     -22.748  25.040  23.237  0.00  0.00     0.259 C 
ATOM      9  O   UNL d   1     -22.608  25.978  22.474  0.00  0.00    -0.267 OA
ATOM     10  N   UNL d   1     -21.683  24.537  23.889  0.00  0.00    -0.319 N 
ATOM     11  H   UNL d   1     -21.805  23.845  24.557  0.00  0.00     0.169 HD
BRANCH  10  12
ATOM     12  C   UNL d   1     -20.397  25.014  23.604  0.00  0.00     0.096 A 
ATOM     13  C   UNL d   1     -19.853  26.044  24.360  0.00  0.00     0.064 A 
ATOM     14  C   UNL d   1     -18.582  26.509  24.079  0.00  0.00     0.026 A 
ATOM     15 CL   UNL d   1     -20.766  26.744  25.661  0.00  0.00    -0.082 Cl
ATOM     16  C   UNL d   1     -17.855  25.957  23.041  0.00  0.00     0.005 A 
ATOM     17  C   UNL d   1     -18.395  24.934  22.281  0.00  0.00     0.045 A 
ATOM     18  C   UNL d   1     -19.664  24.461  22.559  0.00  0.00     0.144 A 
ATOM     19  F   UNL d   1     -20.191  23.463  21.818  0.00  0.00    -0.204 F 
ENDBRANCH  10  12
ENDBRANCH   7   8
BRANCH   1  20
ATOM     20  O   UNL d   1     -23.716  22.905  21.663  0.00  0.00    -0.336 OA
BRANCH  20  21
ATOM     21  C   UNL d   1     -23.914  23.415  20.342  0.00  0.00     0.232 C 
ATOM     22  C   UNL d   1     -22.571  23.871  19.765  0.00  0.00     0.049 C 
BRANCH  21  23
ATOM     23  C   UNL d   1     -24.503  22.318  19.454  0.00  0.00     0.413 C 
ATOM     24  F   UNL d   1     -24.608  22.788  18.141  0.00  0.00    -0.168 F 
ATOM     25  F   UNL d   1     -23.669  21.196  19.482  0.00  0.00    -0.168 F 
ATOM     26  F   UNL d   1     -25.773  21.966  19.927  0.00  0.00    -0.168 F 
ENDBRANCH  21  23
ENDBRANCH  20  21
ENDBRANCH   1  20
BRANCH   3  27
ATOM     27  N   UNL d   1     -27.868  22.801  24.040  0.00  0.00    -0.179 N 
ATOM     28  C   UNL d   1     -28.256  22.051  25.095  0.00  0.00     0.351 A 
ATOM     29  N   UNL d   1     -29.552  21.748  24.915  0.00  0.00    -0.284 N 
ATOM     30  O   UNL d   1     -27.559  21.712  26.035  0.00  0.00    -0.244 OA
ATOM     31  C   UNL d   1     -29.961  22.284  23.711  0.00  0.00     0.131 A 
ATOM     32  C   UNL d   1     -30.427  21.000  25.824  0.00  0.00     0.135 C 
ATOM     33  N   UNL d   1     -28.971  22.919  23.182  0.00  0.00    -0.149 NA
ATOM     34  C   UNL d   1     -31.353  22.117  23.149  0.00  0.00     0.081 C 
ATOM     35  C   UNL d   1     -32.281  21.692  24.294  0.00  0.00     0.009 C 
ATOM     36  C   UNL d   1     -31.648  20.510  25.037  0.00  0.00     0.021 C 
ENDBRANCH   3  27
TORSDOF 6
ENDMDL
