MODEL 1
REMARK VINA RESULT:      -9.7      0.000      0.000
REMARK  15 active torsions:
REMARK  status: ('A' for Active; 'I' for Inactive)
REMARK    1  A    between atoms: C_2  and  O_4 
REMARK    2  A    between atoms: O_4  and  C_5 
REMARK    3  A    between atoms: C_5  and  C_6 
REMARK    4  A    between atoms: C_5  and  C_29 
REMARK    5  A    between atoms: C_6  and  C_7 
REMARK    6  A    between atoms: C_7  and  C_8 
REMARK    7  A    between atoms: C_10  and  C_11 
REMARK    8  A    between atoms: C_11  and  C_12 
REMARK    9  A    between atoms: C_12  and  C_13 
REMARK   10  A    between atoms: C_15  and  C_16 
REMARK   11  A    between atoms: C_16  and  C_17 
REMARK   12  A    between atoms: C_18  and  O_19 
REMARK   13  A    between atoms: C_24  and  C_25 
REMARK   14  A    between atoms: C_27  and  O_28 
REMARK   15  A    between atoms: C_29  and  O_32 
ROOT
ATOM      1  C   UNL d   1     -23.929  22.891  21.239  0.00  0.00    -0.087 C 
ATOM      2  C   UNL d   1     -23.802  23.127  19.757  0.00  0.00     0.043 C 
ATOM      3  C   UNL d   1     -23.628  23.847  22.083  0.00  0.00    -0.020 C 
ENDROOT
BRANCH   1   4
ATOM      4  C   UNL d   1     -24.404  21.556  21.753  0.00  0.00     0.037 C 
BRANCH   4   5
ATOM      5  C   UNL d   1     -25.812  21.277  21.224  0.00  0.00     0.031 C 
BRANCH   5   6
ATOM      6  C   UNL d   1     -26.829  21.849  22.179  0.00  0.00    -0.024 C 
ATOM      7  C   UNL d   1     -28.095  21.879  21.846  0.00  0.00    -0.087 C 
ATOM      8  C   UNL d   1     -28.552  21.238  20.561  0.00  0.00     0.043 C 
BRANCH   7   9
ATOM      9  C   UNL d   1     -29.096  22.553  22.747  0.00  0.00     0.036 C 
BRANCH   9  10
ATOM     10  C   UNL d   1     -30.503  22.367  22.177  0.00  0.00     0.040 C 
BRANCH  10  11
ATOM     11  C   UNL d   1     -31.501  22.193  23.325  0.00  0.00     0.165 C 
BRANCH  11  12
ATOM     12  O   UNL d   1     -31.037  21.144  24.215  0.00  0.00    -0.313 OA
BRANCH  12  13
ATOM     13  C   UNL d   1     -30.900  21.462  25.511  0.00  0.00     0.255 C 
ATOM     14  C   UNL d   1     -29.531  21.473  26.143  0.00  0.00     0.126 C 
ATOM     15  O   UNL d   1     -31.873  21.738  26.172  0.00  0.00    -0.266 OA
ENDBRANCH  12  13
ENDBRANCH  11  12
BRANCH  11  16
ATOM     16  C   UNL d   1     -32.870  21.814  22.757  0.00  0.00     0.077 C 
ATOM     17  C   UNL d   1     -32.793  21.770  21.229  0.00  0.00     0.048 C 
ATOM     18  C   UNL d   1     -33.279  20.438  23.287  0.00  0.00     0.048 C 
BRANCH  16  19
ATOM     19  O   UNL d   1     -33.838  22.786  23.158  0.00  0.00    -0.388 OA
ATOM     20  H   UNL d   1     -33.774  23.624  22.678  0.00  0.00     0.210 HD
ENDBRANCH  16  19
ENDBRANCH  11  16
ENDBRANCH  10  11
ENDBRANCH   9  10
ENDBRANCH   7   9
ENDBRANCH   5   6
ENDBRANCH   4   5
ENDBRANCH   1   4
BRANCH   3  21
ATOM     21  C   UNL d   1     -23.031  25.136  21.579  0.00  0.00     0.072 C 
BRANCH  21  22
ATOM     22  C   UNL d   1     -21.983  25.617  22.550  0.00  0.00     0.014 A 
ATOM     23  C   UNL d   1     -20.640  25.459  22.255  0.00  0.00     0.088 A 
ATOM     24  C   UNL d   1     -19.670  25.905  23.170  0.00  0.00     0.043 A 
ATOM     25  C   UNL d   1     -20.073  26.510  24.367  0.00  0.00    -0.021 A 
ATOM     26  C   UNL d   1     -21.401  26.664  24.643  0.00  0.00     0.074 A 
ATOM     27  C   UNL d   1     -19.039  26.991  25.353  0.00  0.00     0.051 C 
ATOM     28  C   UNL d   1     -22.364  26.223  23.739  0.00  0.00     0.097 A 
ATOM     29 CL   UNL d   1     -21.893  27.414  26.130  0.00  0.00    -0.081 Cl
BRANCH  23  30
ATOM     30  O   UNL d   1     -20.262  24.872  21.091  0.00  0.00    -0.359 OA
ATOM     31  H   UNL d   1     -19.652  25.406  20.563  0.00  0.00     0.217 HD
ENDBRANCH  23  30
BRANCH  24  32
ATOM     32  C   UNL d   1     -18.245  25.739  22.872  0.00  0.00     0.273 C 
ATOM     33  O   UNL d   1     -17.851  24.721  22.342  0.00  0.00    -0.301 OA
ENDBRANCH  24  32
BRANCH  28  34
ATOM     34  O   UNL d   1     -23.682  26.381  24.023  0.00  0.00    -0.358 OA
ATOM     35  H   UNL d   1     -24.086  25.614  24.451  0.00  0.00     0.217 HD
ENDBRANCH  28  34
ENDBRANCH  21  22
ENDBRANCH   3  21
TORSDOF 15
ENDMDL
