MODEL 1
REMARK VINA RESULT:      -9.7      0.000      0.000
REMARK  5 active torsions:
REMARK  status: ('A' for Active; 'I' for Inactive)
REMARK    1  A    between atoms: O_2  and  C_3 
REMARK    2  A    between atoms: C_8  and  C_9 
REMARK    3  A    between atoms: C_16  and  O_17 
REMARK    4  A    between atoms: C_18  and  C_19 
REMARK    5  A    between atoms: C_19  and  O_21 
ROOT
ATOM      1  C   UNL d   1     -32.754  21.664  22.217  0.00  0.00     0.069 A 
ATOM      2  C   UNL d   1     -32.152  22.067  21.021  0.00  0.00     0.039 A 
ATOM      3  C   UNL d   1     -30.824  22.355  20.967  0.00  0.00     0.035 A 
ATOM      4  C   UNL d   1     -30.035  22.250  22.128  0.00  0.00     0.069 A 
ATOM      5  N   UNL d   1     -28.730  22.529  22.094  0.00  0.00    -0.245 NA
ATOM      6  C   UNL d   1     -27.961  22.444  23.157  0.00  0.00     0.102 A 
ATOM      7  C   UNL d   1     -28.458  22.043  24.415  0.00  0.00     0.113 A 
ATOM      8  C   UNL d   1     -29.814  21.736  24.544  0.00  0.00     0.085 A 
ATOM      9  C   UNL d   1     -30.644  21.843  23.341  0.00  0.00     0.015 A 
ATOM     10  C   UNL d   1     -32.010  21.552  23.372  0.00  0.00     0.051 A 
ENDROOT
BRANCH   6  11
ATOM     11  C   UNL d   1     -26.522  22.773  23.028  0.00  0.00    -0.004 A 
ATOM     12  C   UNL d   1     -25.992  23.870  23.708  0.00  0.00     0.015 A 
ATOM     13  C   UNL d   1     -24.652  24.172  23.585  0.00  0.00     0.024 A 
ATOM     14  C   UNL d   1     -23.833  23.389  22.788  0.00  0.00     0.034 A 
ATOM     15  C   UNL d   1     -24.354  22.300  22.112  0.00  0.00     0.024 A 
ATOM     16 CL   UNL d   1     -22.147  23.775  22.638  0.00  0.00    -0.084 Cl
ATOM     17  C   UNL d   1     -25.695  21.991  22.223  0.00  0.00     0.015 A 
ENDBRANCH   6  11
BRANCH   7  18
ATOM     18  O   UNL d   1     -27.632  21.962  25.485  0.00  0.00    -0.357 OA
ATOM     19  H   UNL d   1     -28.088  21.812  26.324  0.00  0.00     0.217 HD
ENDBRANCH   7  18
BRANCH   8  20
ATOM     20  C   UNL d   1     -30.385  21.318  25.835  0.00  0.00     0.180 C 
ATOM     21  O   UNL d   1     -31.151  22.055  26.427  0.00  0.00    -0.646 OA
BRANCH  20  22
ATOM     22  O   UNL d   1     -30.059  20.122  26.361  0.00  0.00    -0.773 OA
ATOM     23  H   UNL d   1     -29.328  19.644  25.945  0.00  0.00     0.167 HD
ENDBRANCH  20  22
ENDBRANCH   8  20
BRANCH   1  24
ATOM     24  O   UNL d   1     -34.083  21.382  22.241  0.00  0.00    -0.356 OA
ATOM     25  C   UNL d   1     -34.481  20.092  21.773  0.00  0.00     0.210 C 
ENDBRANCH   1  24
TORSDOF 5
ENDMDL
