MODEL 1
REMARK VINA RESULT:     -10.9      0.000      0.000
REMARK  6 active torsions:
REMARK  status: ('A' for Active; 'I' for Inactive)
REMARK    1  A    between atoms: C_5  and  C_6 
REMARK    2  A    between atoms: N_7  and  N_8 
REMARK    3  A    between atoms: N_8  and  C_10 
REMARK    4  A    between atoms: C_12  and  C_13 
REMARK    5  A    between atoms: C_22  and  C_23 
REMARK    6  A    between atoms: C_23  and  O_25 
ROOT
ATOM      1  N   UNL d   1     -27.328  22.416  23.801  0.00  0.00    -0.251 N 
ATOM      2  C   UNL d   1     -27.085  22.950  25.144  0.00  0.00     0.182 C 
ENDROOT
BRANCH   1   3
ATOM      3  N   UNL d   1     -28.581  21.880  23.477  0.00  0.00    -0.182 NA
ATOM      4  C   UNL d   1     -29.616  22.661  23.377  0.00  0.00     0.151 C 
BRANCH   4   5
ATOM      5  C   UNL d   1     -30.931  22.098  23.036  0.00  0.00    -0.000 A 
ATOM      6  C   UNL d   1     -31.442  22.235  21.744  0.00  0.00     0.014 A 
ATOM      7  C   UNL d   1     -32.673  21.700  21.430  0.00  0.00     0.007 A 
ATOM      8  C   UNL d   1     -33.418  21.033  22.391  0.00  0.00    -0.061 A 
ATOM      9  C   UNL d   1     -34.763  20.460  22.030  0.00  0.00     0.048 C 
ATOM     10  C   UNL d   1     -32.935  20.890  23.675  0.00  0.00     0.026 A 
ATOM     11  C   UNL d   1     -31.689  21.420  24.015  0.00  0.00     0.050 A 
BRANCH  11  12
ATOM     12  C   UNL d   1     -31.168  21.270  25.385  0.00  0.00     0.177 C 
ATOM     13  O   UNL d   1     -31.581  21.989  26.273  0.00  0.00    -0.646 OA
BRANCH  12  14
ATOM     14  O   UNL d   1     -30.235  20.336  25.653  0.00  0.00    -0.773 OA
ATOM     15  H   UNL d   1     -30.189  20.008  26.562  0.00  0.00     0.167 HD
ENDBRANCH  12  14
ENDBRANCH  11  12
ENDBRANCH   4   5
ENDBRANCH   1   3
BRANCH   1  16
ATOM     16  C   UNL d   1     -26.318  22.440  22.853  0.00  0.00     0.190 A 
ATOM     17  S   UNL d   1     -26.382  21.657  21.277  0.00  0.00    -0.053 SA
ATOM     18  C   UNL d   1     -24.763  22.251  20.916  0.00  0.00     0.012 A 
ATOM     19  C   UNL d   1     -24.327  22.954  21.976  0.00  0.00     0.082 A 
ATOM     20  C   UNL d   1     -23.997  22.007  19.641  0.00  0.00     0.059 C 
ATOM     21  N   UNL d   1     -25.175  23.038  22.991  0.00  0.00    -0.221 NA
BRANCH  19  22
ATOM     22  C   UNL d   1     -22.988  23.593  22.007  0.00  0.00    -0.006 A 
ATOM     23  C   UNL d   1     -22.648  24.552  21.055  0.00  0.00     0.014 A 
ATOM     24  C   UNL d   1     -21.401  25.143  21.089  0.00  0.00     0.001 A 
ATOM     25  C   UNL d   1     -20.490  24.784  22.066  0.00  0.00     0.000 A 
ATOM     26  C   UNL d   1     -20.821  23.834  23.013  0.00  0.00     0.001 A 
ATOM     27  C   UNL d   1     -22.067  23.240  22.992  0.00  0.00     0.014 A 
ENDBRANCH  19  22
ENDBRANCH   1  16
TORSDOF 6
ENDMDL
