MODEL 1
REMARK VINA RESULT:     -10.7      0.000      0.000
REMARK  6 active torsions:
REMARK  status: ('A' for Active; 'I' for Inactive)
REMARK    1  A    between atoms: C_2  and  O_3 
REMARK    2  A    between atoms: C_2  and  C_32 
REMARK    3  A    between atoms: O_3  and  C_4 
REMARK    4  A    between atoms: C_6  and  N_7 
REMARK    5  A    between atoms: C_20  and  C_21 
REMARK       I    between atoms: C_21  and  N_23 
REMARK    6  A    between atoms: N_23  and  C_24 
ROOT
ATOM      1  C   UNL d   1     -24.601  23.615  22.974  0.00  0.00     0.087 A 
ATOM      2  C   UNL d   1     -25.796  22.960  23.216  0.00  0.00     0.073 A 
ATOM      3  C   UNL d   1     -26.712  23.496  24.111  0.00  0.00     0.104 A 
ATOM      4  C   UNL d   1     -26.435  24.696  24.766  0.00  0.00     0.146 A 
ATOM      5  F   UNL d   1     -27.334  25.215  25.631  0.00  0.00    -0.204 F 
ATOM      6  C   UNL d   1     -25.246  25.352  24.536  0.00  0.00     0.064 A 
ATOM      7  C   UNL d   1     -24.318  24.819  23.635  0.00  0.00     0.068 A 
ENDROOT
BRANCH   7   8
ATOM      8  C   UNL d   1     -23.048  25.520  23.382  0.00  0.00     0.254 C 
ATOM      9  O   UNL d   1     -23.018  26.470  22.623  0.00  0.00    -0.268 OA
ATOM     10  N   UNL d   1     -21.918  25.109  23.993  0.00  0.00    -0.352 N 
ATOM     11  H   UNL d   1     -21.942  24.353  24.599  0.00  0.00     0.163 HD
BRANCH  10  12
ATOM     12  C   UNL d   1     -20.654  25.808  23.742  0.00  0.00     0.085 C 
ATOM     13  C   UNL d   1     -20.095  26.340  25.063  0.00  0.00     0.031 C 
ATOM     14  C   UNL d   1     -18.776  27.069  24.801  0.00  0.00     0.081 C 
ATOM     15  C   UNL d   1     -17.771  26.097  24.176  0.00  0.00     0.243 C 
ATOM     16  C   UNL d   1     -18.331  25.565  22.856  0.00  0.00     0.081 C 
ATOM     17  F   UNL d   1     -16.565  26.763  23.937  0.00  0.00    -0.206 F 
ATOM     18  F   UNL d   1     -17.549  25.030  25.053  0.00  0.00    -0.206 F 
ATOM     19  C   UNL d   1     -19.651  24.836  23.118  0.00  0.00     0.031 C 
ENDBRANCH  10  12
ENDBRANCH   7   8
BRANCH   1  20
ATOM     20  O   UNL d   1     -23.705  23.092  22.099  0.00  0.00    -0.336 OA
BRANCH  20  21
ATOM     21  C   UNL d   1     -23.951  23.312  20.709  0.00  0.00     0.232 C 
ATOM     22  C   UNL d   1     -22.661  23.774  20.029  0.00  0.00     0.049 C 
BRANCH  21  23
ATOM     23  C   UNL d   1     -24.429  22.010  20.063  0.00  0.00     0.413 C 
ATOM     24  F   UNL d   1     -25.770  22.140  19.688  0.00  0.00    -0.168 F 
ATOM     25  F   UNL d   1     -23.652  21.736  18.932  0.00  0.00    -0.168 F 
ATOM     26  F   UNL d   1     -24.302  20.960  20.980  0.00  0.00    -0.168 F 
ENDBRANCH  21  23
ENDBRANCH  20  21
ENDBRANCH   1  20
BRANCH   3  27
ATOM     27  N   UNL d   1     -27.918  22.834  24.353  0.00  0.00    -0.178 N 
ATOM     28  C   UNL d   1     -28.219  22.092  25.441  0.00  0.00     0.351 A 
ATOM     29  N   UNL d   1     -29.482  21.659  25.294  0.00  0.00    -0.284 N 
ATOM     30  O   UNL d   1     -27.481  21.858  26.381  0.00  0.00    -0.244 OA
ATOM     31  C   UNL d   1     -29.955  22.107  24.078  0.00  0.00     0.131 A 
ATOM     32  C   UNL d   1     -30.270  20.865  26.243  0.00  0.00     0.135 C 
ATOM     33  N   UNL d   1     -29.039  22.813  23.510  0.00  0.00    -0.149 NA
ATOM     34  C   UNL d   1     -31.332  21.786  23.543  0.00  0.00     0.081 C 
ATOM     35  C   UNL d   1     -32.200  21.318  24.720  0.00  0.00     0.009 C 
ATOM     36  C   UNL d   1     -31.448  20.231  25.494  0.00  0.00     0.021 C 
ENDBRANCH   3  27
TORSDOF 6
ENDMDL
