MODEL 1
REMARK VINA RESULT:      -8.5      0.000      0.000
REMARK  4 active torsions:
REMARK  status: ('A' for Active; 'I' for Inactive)
REMARK    1  A    between atoms: C_2  and  O_3 
REMARK    2  A    between atoms: C_2  and  C_4 
REMARK    3  A    between atoms: C_5  and  O_6 
REMARK    4  A    between atoms: C_7  and  C_8 
ROOT
ATOM      1  C   UNL d   1     -24.382  22.947  20.852  0.00  0.00     0.085 A 
ATOM      2  C   UNL d   1     -23.477  23.762  21.533  0.00  0.00     0.113 A 
ATOM      3  C   UNL d   1     -23.745  24.119  22.870  0.00  0.00     0.102 A 
ATOM      4  N   UNL d   1     -24.823  23.711  23.502  0.00  0.00    -0.243 NA
ATOM      5  C   UNL d   1     -25.739  22.930  22.926  0.00  0.00     0.086 A 
ATOM      6  C   UNL d   1     -26.886  22.516  23.631  0.00  0.00     0.040 A 
ATOM      7 BR   UNL d   1     -27.147  23.064  25.422  0.00  0.00    -0.049 Br
ATOM      8  C   UNL d   1     -27.801  21.715  23.020  0.00  0.00     0.021 A 
ATOM      9  C   UNL d   1     -27.631  21.303  21.702  0.00  0.00     0.002 A 
ATOM     10  C   UNL d   1     -26.536  21.690  20.985  0.00  0.00     0.015 A 
ATOM     11  C   UNL d   1     -25.573  22.509  21.583  0.00  0.00     0.014 A 
ENDROOT
BRANCH   3  12
ATOM     12  C   UNL d   1     -22.779  24.984  23.588  0.00  0.00    -0.004 A 
ATOM     13  C   UNL d   1     -21.580  24.452  24.060  0.00  0.00     0.015 A 
ATOM     14  C   UNL d   1     -20.685  25.263  24.728  0.00  0.00     0.024 A 
ATOM     15  C   UNL d   1     -20.976  26.601  24.930  0.00  0.00     0.034 A 
ATOM     16  C   UNL d   1     -22.166  27.135  24.464  0.00  0.00     0.024 A 
ATOM     17 CL   UNL d   1     -19.845  27.614  25.772  0.00  0.00    -0.084 Cl
ATOM     18  C   UNL d   1     -23.066  26.334  23.790  0.00  0.00     0.015 A 
ENDBRANCH   3  12
BRANCH   2  19
ATOM     19  O   UNL d   1     -22.354  24.203  20.916  0.00  0.00    -0.357 OA
ATOM     20  H   UNL d   1     -22.054  23.636  20.193  0.00  0.00     0.217 HD
ENDBRANCH   2  19
BRANCH   1  21
ATOM     21  C   UNL d   1     -24.150  22.544  19.454  0.00  0.00     0.180 C 
ATOM     22  O   UNL d   1     -23.523  21.532  19.210  0.00  0.00    -0.646 OA
BRANCH  21  23
ATOM     23  O   UNL d   1     -24.633  23.296  18.446  0.00  0.00    -0.773 OA
ATOM     24  H   UNL d   1     -24.901  22.833  17.641  0.00  0.00     0.167 HD
ENDBRANCH  21  23
ENDBRANCH   1  21
TORSDOF 4
ENDMDL
