MODEL 1
REMARK VINA RESULT:      -8.9      0.000      0.000
REMARK  7 active torsions:
REMARK  status: ('A' for Active; 'I' for Inactive)
REMARK    1  A    between atoms: C_2  and  N_3 
REMARK    2  A    between atoms: C_4  and  C_5 
REMARK    3  A    between atoms: C_5  and  O_6 
REMARK    4  A    between atoms: N_8  and  C_9 
REMARK    5  A    between atoms: C_12  and  C_13 
REMARK    6  A    between atoms: N_17  and  C_18 
REMARK    7  A    between atoms: C_22  and  O_23 
ROOT
ATOM      1  C   UNL d   1     -28.670  22.139  22.312  0.00  0.00     0.103 A 
ATOM      2  C   UNL d   1     -27.971  23.076  23.053  0.00  0.00     0.048 A 
ATOM      3  C   UNL d   1     -26.623  23.299  22.778  0.00  0.00    -0.010 A 
ATOM      4  C   UNL d   1     -25.830  24.272  23.533  0.00  0.00    -0.027 A 
ATOM      5  C   UNL d   1     -24.536  24.450  23.223  0.00  0.00     0.109 A 
ATOM      6  N   UNL d   1     -23.921  23.751  22.219  0.00  0.00    -0.288 N 
ATOM      7  C   UNL d   1     -24.573  22.837  21.475  0.00  0.00     0.263 A 
ATOM      8  O   UNL d   1     -23.990  22.234  20.591  0.00  0.00    -0.267 OA
ATOM      9  C   UNL d   1     -25.989  22.574  21.741  0.00  0.00     0.046 A 
ATOM     10  C   UNL d   1     -26.717  21.638  21.003  0.00  0.00     0.062 A 
ATOM     11  C   UNL d   1     -28.037  21.428  21.288  0.00  0.00     0.146 A 
ATOM     12  F   UNL d   1     -28.739  20.520  20.573  0.00  0.00    -0.204 F 
ENDROOT
BRANCH   1  13
ATOM     13  N   UNL d   1     -30.021  21.906  22.584  0.00  0.00    -0.178 N 
ATOM     14  N   UNL d   1     -30.559  21.458  23.798  0.00  0.00    -0.147 NA
ATOM     15  C   UNL d   1     -31.842  21.364  23.659  0.00  0.00     0.154 A 
ATOM     16  N   UNL d   1     -32.179  21.738  22.381  0.00  0.00    -0.283 N 
ATOM     17  C   UNL d   1     -31.048  22.066  21.723  0.00  0.00     0.351 A 
ATOM     18  O   UNL d   1     -30.969  22.439  20.568  0.00  0.00    -0.244 OA
BRANCH  15  19
ATOM     19  C   UNL d   1     -32.809  20.916  24.724  0.00  0.00     0.244 C 
BRANCH  19  20
ATOM     20  O   UNL d   1     -32.198  21.049  26.009  0.00  0.00    -0.393 OA
ATOM     21  H   UNL d   1     -31.369  20.562  26.103  0.00  0.00     0.209 HD
ENDBRANCH  19  20
ENDBRANCH  15  19
BRANCH  16  22
ATOM     22  C   UNL d   1     -33.534  21.769  21.825  0.00  0.00     0.131 C 
ATOM     23  C   UNL d   1     -33.935  20.359  21.384  0.00  0.00     0.027 C 
ENDBRANCH  16  22
ENDBRANCH   1  13
BRANCH   4  24
ATOM     24  C   UNL d   1     -26.461  25.068  24.647  0.00  0.00     0.013 C 
ATOM     25  C   UNL d   1     -26.813  24.132  25.804  0.00  0.00     0.015 C 
ATOM     26  C   UNL d   1     -25.477  26.134  25.133  0.00  0.00     0.015 C 
ENDBRANCH   4  24
BRANCH   6  27
ATOM     27  C   UNL d   1     -22.570  23.995  21.959  0.00  0.00     0.053 A 
ATOM     28  C   UNL d   1     -21.624  23.927  22.976  0.00  0.00     0.018 A 
ATOM     29  C   UNL d   1     -20.292  24.171  22.675  0.00  0.00     0.172 A 
ATOM     30  C   UNL d   1     -22.039  23.585  24.384  0.00  0.00     0.055 C 
ATOM     31  N   UNL d   1     -19.924  24.477  21.441  0.00  0.00    -0.237 NA
ATOM     32  C   UNL d   1     -20.797  24.557  20.454  0.00  0.00     0.122 A 
ATOM     33  C   UNL d   1     -22.137  24.322  20.672  0.00  0.00     0.050 A 
BRANCH  29  34
ATOM     34  O   UNL d   1     -19.358  24.102  23.656  0.00  0.00    -0.339 OA
ATOM     35  C   UNL d   1     -18.937  25.337  24.239  0.00  0.00     0.211 C 
ENDBRANCH  29  34
ENDBRANCH   6  27
TORSDOF 7
ENDMDL
