MODEL 1
REMARK VINA RESULT:      -9.7      0.000      0.000
REMARK  13 active torsions:
REMARK  status: ('A' for Active; 'I' for Inactive)
REMARK    1  A    between atoms: C_2  and  C_17 
REMARK    2  A    between atoms: C_3  and  C_4 
REMARK    3  A    between atoms: C_4  and  C_5 
REMARK    4  A    between atoms: C_6  and  O_7 
REMARK    5  A    between atoms: C_12  and  C_13 
REMARK    6  A    between atoms: C_15  and  O_16 
REMARK    7  A    between atoms: C_17  and  C_18 
REMARK    8  A    between atoms: C_18  and  C_19 
REMARK    9  A    between atoms: C_20  and  C_22 
REMARK   10  A    between atoms: C_22  and  C_23 
REMARK   11  A    between atoms: C_23  and  C_24 
REMARK   12  A    between atoms: C_24  and  C_26 
REMARK   13  A    between atoms: C_26  and  O_29 
ROOT
ATOM      1  C   UNL d   1     -24.231  22.868  19.218  0.00  0.00     0.043 C 
ATOM      2  C   UNL d   1     -24.213  22.571  20.695  0.00  0.00    -0.087 C 
ATOM      3  C   UNL d   1     -23.730  23.453  21.535  0.00  0.00    -0.020 C 
ENDROOT
BRANCH   2   4
ATOM      4  C   UNL d   1     -24.750  21.260  21.208  0.00  0.00     0.037 C 
BRANCH   4   5
ATOM      5  C   UNL d   1     -25.879  21.527  22.205  0.00  0.00     0.031 C 
BRANCH   5   6
ATOM      6  C   UNL d   1     -27.174  21.720  21.459  0.00  0.00    -0.024 C 
ATOM      7  C   UNL d   1     -28.208  22.248  22.067  0.00  0.00    -0.087 C 
ATOM      8  C   UNL d   1     -28.070  22.767  23.475  0.00  0.00     0.043 C 
BRANCH   7   9
ATOM      9  C   UNL d   1     -29.535  22.335  21.359  0.00  0.00     0.041 C 
BRANCH   9  10
ATOM     10  C   UNL d   1     -30.661  22.405  22.392  0.00  0.00     0.086 C 
BRANCH  10  11
ATOM     11  C   UNL d   1     -31.967  22.034  21.738  0.00  0.00     0.160 C 
ATOM     12  O   UNL d   1     -32.063  22.041  20.534  0.00  0.00    -0.295 OA
BRANCH  11  13
ATOM     13  C   UNL d   1     -33.155  21.658  22.586  0.00  0.00     0.111 C 
ATOM     14  C   UNL d   1     -33.965  20.571  21.876  0.00  0.00     0.053 C 
ATOM     15  C   UNL d   1     -32.670  21.132  23.938  0.00  0.00     0.053 C 
BRANCH  13  16
ATOM     16  O   UNL d   1     -33.978  22.809  22.790  0.00  0.00    -0.383 OA
ATOM     17  H   UNL d   1     -34.925  22.635  22.705  0.00  0.00     0.211 HD
ENDBRANCH  13  16
ENDBRANCH  11  13
ENDBRANCH  10  11
ENDBRANCH   9  10
ENDBRANCH   7   9
ENDBRANCH   5   6
ENDBRANCH   4   5
ENDBRANCH   2   4
BRANCH   3  18
ATOM     18  C   UNL d   1     -23.074  24.707  21.015  0.00  0.00     0.072 C 
BRANCH  18  19
ATOM     19  C   UNL d   1     -22.144  25.259  22.065  0.00  0.00     0.014 A 
ATOM     20  C   UNL d   1     -20.777  25.089  21.937  0.00  0.00     0.088 A 
ATOM     21  C   UNL d   1     -19.916  25.602  22.925  0.00  0.00     0.043 A 
ATOM     22  C   UNL d   1     -20.453  26.286  24.025  0.00  0.00    -0.021 A 
ATOM     23  C   UNL d   1     -21.804  26.451  24.134  0.00  0.00     0.074 A 
ATOM     24  C   UNL d   1     -19.539  26.839  25.086  0.00  0.00     0.051 C 
ATOM     25  C   UNL d   1     -22.657  25.944  23.157  0.00  0.00     0.097 A 
ATOM     26 CL   UNL d   1     -22.462  27.300  25.498  0.00  0.00    -0.081 Cl
BRANCH  20  27
ATOM     27  O   UNL d   1     -20.268  24.425  20.870  0.00  0.00    -0.359 OA
ATOM     28  H   UNL d   1     -20.270  24.937  20.050  0.00  0.00     0.217 HD
ENDBRANCH  20  27
BRANCH  21  29
ATOM     29  C   UNL d   1     -18.468  25.423  22.805  0.00  0.00     0.273 C 
ATOM     30  O   UNL d   1     -18.022  24.532  22.114  0.00  0.00    -0.301 OA
ENDBRANCH  21  29
BRANCH  25  31
ATOM     31  O   UNL d   1     -23.998  26.115  23.277  0.00  0.00    -0.358 OA
ATOM     32  H   UNL d   1     -24.334  25.976  24.173  0.00  0.00     0.217 HD
ENDBRANCH  25  31
ENDBRANCH  18  19
ENDBRANCH   3  18
TORSDOF 13
ENDMDL
