MODEL 1
REMARK VINA RESULT:      -8.5      0.000      0.000
REMARK  8 active torsions:
REMARK  status: ('A' for Active; 'I' for Inactive)
REMARK    1  A    between atoms: C_8  and  N_9 
REMARK       I    between atoms: N_9  and  C_10 
REMARK    2  A    between atoms: C_10  and  C_12 
REMARK    3  A    between atoms: C_16  and  N_17 
REMARK    4  A    between atoms: C_28  and  O_29 
REMARK    5  A    between atoms: O_29  and  C_30 
REMARK    6  A    between atoms: C_30  and  C_32 
REMARK    7  A    between atoms: C_32  and  C_33 
REMARK    8  A    between atoms: C_33  and  N_34 
ROOT
ATOM      1  C   UNL d   1     -25.869  22.437  22.254  0.00  0.00     0.068 A 
ATOM      2  C   UNL d   1     -26.501  21.611  21.317  0.00  0.00     0.064 A 
ATOM      3  C   UNL d   1     -27.871  21.469  21.341  0.00  0.00     0.146 A 
ATOM      4  F   UNL d   1     -28.480  20.669  20.439  0.00  0.00    -0.204 F 
ATOM      5  C   UNL d   1     -28.631  22.155  22.288  0.00  0.00     0.104 A 
ATOM      6  C   UNL d   1     -28.012  22.980  23.218  0.00  0.00     0.073 A 
ATOM      7  C   UNL d   1     -26.635  23.125  23.206  0.00  0.00     0.087 A 
ENDROOT
BRANCH   1   8
ATOM      8  C   UNL d   1     -24.404  22.586  22.236  0.00  0.00     0.259 C 
ATOM      9  N   UNL d   1     -23.850  23.810  22.342  0.00  0.00    -0.320 N 
ATOM     10  H   UNL d   1     -24.410  24.583  22.515  0.00  0.00     0.169 HD
ATOM     11  O   UNL d   1     -23.694  21.605  22.125  0.00  0.00    -0.267 OA
BRANCH   9  12
ATOM     12  C   UNL d   1     -22.466  23.967  22.203  0.00  0.00     0.080 A 
ATOM     13  C   UNL d   1     -21.922  24.281  20.966  0.00  0.00    -0.032 A 
ATOM     14  C   UNL d   1     -22.820  24.454  19.769  0.00  0.00     0.050 C 
ATOM     15  C   UNL d   1     -20.555  24.440  20.834  0.00  0.00     0.009 A 
ATOM     16  C   UNL d   1     -19.729  24.277  21.929  0.00  0.00     0.004 A 
ATOM     17  C   UNL d   1     -20.266  23.964  23.164  0.00  0.00     0.045 A 
ATOM     18  C   UNL d   1     -21.633  23.808  23.306  0.00  0.00     0.143 A 
ATOM     19  F   UNL d   1     -22.157  23.502  24.513  0.00  0.00    -0.204 F 
ENDBRANCH   9  12
ENDBRANCH   1   8
BRANCH   7  20
ATOM     20  O   UNL d   1     -26.028  23.931  24.113  0.00  0.00    -0.345 OA
BRANCH  20  21
ATOM     21  C   UNL d   1     -26.838  24.436  25.177  0.00  0.00     0.126 C 
ATOM     22  C   UNL d   1     -26.348  25.829  25.575  0.00  0.00     0.040 C 
BRANCH  21  23
ATOM     23  C   UNL d   1     -26.742  23.497  26.381  0.00  0.00     0.062 C 
BRANCH  23  24
ATOM     24  C   UNL d   1     -28.132  23.304  26.991  0.00  0.00     0.274 C 
BRANCH  24  25
ATOM     25  N   UNL d   1     -28.391  21.869  27.173  0.00  0.00     0.080 N 
ATOM     26  C   UNL d   1     -29.509  21.425  26.330  0.00  0.00     0.309 C 
ATOM     27  C   UNL d   1     -27.183  21.078  26.905  0.00  0.00     0.309 C 
ENDBRANCH  24  25
ENDBRANCH  23  24
ENDBRANCH  21  23
ENDBRANCH  20  21
ENDBRANCH   7  20
BRANCH   5  28
ATOM     28  N   UNL d   1     -30.020  22.010  22.303  0.00  0.00    -0.178 N 
ATOM     29  C   UNL d   1     -30.860  22.229  21.266  0.00  0.00     0.351 A 
ATOM     30  N   UNL d   1     -32.098  21.946  21.690  0.00  0.00    -0.280 N 
ATOM     31  O   UNL d   1     -30.547  22.612  20.153  0.00  0.00    -0.244 OA
ATOM     32  C   UNL d   1     -32.032  21.586  23.024  0.00  0.00     0.155 A 
ATOM     33  C   UNL d   1     -33.355  21.972  20.933  0.00  0.00     0.161 C 
ATOM     34  N   UNL d   1     -30.803  21.613  23.401  0.00  0.00    -0.147 NA
ATOM     35  C   UNL d   1     -33.258  21.241  23.838  0.00  0.00     0.248 C 
ATOM     36  O   UNL d   1     -34.330  20.982  22.919  0.00  0.00    -0.382 OA
ATOM     37  C   UNL d   1     -34.513  22.010  21.941  0.00  0.00     0.188 C 
ENDBRANCH   5  28
TORSDOF 8
ENDMDL
