MODEL 1
REMARK VINA RESULT:      -9.0      0.000      0.000
REMARK  4 active torsions:
REMARK  status: ('A' for Active; 'I' for Inactive)
REMARK    1  A    between atoms: C_8  and  N_9 
REMARK    2  A    between atoms: N_9  and  C_10 
REMARK    3  A    between atoms: C_15  and  C_16 
REMARK    4  A    between atoms: C_16  and  O_18 
ROOT
ATOM      1  C   UNL d   1     -30.879  22.182  23.102  0.00  0.00     0.144 A 
ATOM      2  N   UNL d   1     -31.415  22.348  21.902  0.00  0.00    -0.242 NA
ATOM      3  C   UNL d   1     -32.588  21.836  21.589  0.00  0.00     0.119 A 
ATOM      4  C   UNL d   1     -33.316  21.098  22.506  0.00  0.00     0.020 A 
ATOM      5  C   UNL d   1     -32.809  20.897  23.777  0.00  0.00     0.024 A 
ATOM      6  C   UNL d   1     -31.559  21.446  24.088  0.00  0.00     0.083 A 
ENDROOT
BRANCH   1   7
ATOM      7  N   UNL d   1     -29.644  22.738  23.387  0.00  0.00    -0.340 N 
ATOM      8  H   UNL d   1     -29.560  23.396  24.094  0.00  0.00     0.167 HD
BRANCH   7   9
ATOM      9  C   UNL d   1     -28.518  22.351  22.655  0.00  0.00     0.041 A 
ATOM     10  C   UNL d   1     -27.247  22.686  23.104  0.00  0.00    -0.013 A 
ATOM     11  C   UNL d   1     -27.081  23.466  24.383  0.00  0.00     0.052 C 
ATOM     12  C   UNL d   1     -26.136  22.298  22.381  0.00  0.00     0.042 A 
ATOM     13 CL   UNL d   1     -24.546  22.708  22.945  0.00  0.00    -0.084 Cl
ATOM     14  C   UNL d   1     -26.288  21.585  21.204  0.00  0.00     0.024 A 
ATOM     15  C   UNL d   1     -27.554  21.256  20.751  0.00  0.00     0.004 A 
ATOM     16  C   UNL d   1     -28.667  21.637  21.473  0.00  0.00     0.030 A 
ENDBRANCH   7   9
ENDBRANCH   1   7
BRANCH   6  17
ATOM     17  C   UNL d   1     -30.968  21.259  25.424  0.00  0.00     0.180 C 
ATOM     18  O   UNL d   1     -31.588  21.593  26.415  0.00  0.00    -0.646 OA
BRANCH  17  19
ATOM     19  O   UNL d   1     -29.740  20.718  25.548  0.00  0.00    -0.773 OA
ATOM     20  H   UNL d   1     -29.647  19.784  25.316  0.00  0.00     0.167 HD
ENDBRANCH  17  19
ENDBRANCH   6  17
TORSDOF 4
ENDMDL
