MODEL 1
REMARK VINA RESULT:     -12.5      0.000      0.000
REMARK  4 active torsions:
REMARK  status: ('A' for Active; 'I' for Inactive)
REMARK       I    between atoms: C_2  and  N_3 
REMARK    1  A    between atoms: C_2  and  C_20 
REMARK    2  A    between atoms: N_3  and  C_4 
REMARK    3  A    between atoms: C_9  and  C_10 
REMARK    4  A    between atoms: C_21  and  O_22 
ROOT
ATOM      1  C   UNL d   1     -26.769  22.348  23.082  0.00  0.00     0.119 A 
ATOM      2  C   UNL d   1     -26.153  21.751  21.987  0.00  0.00     0.185 A 
ATOM      3  F   UNL d   1     -26.756  20.723  21.350  0.00  0.00    -0.200 F 
ATOM      4  C   UNL d   1     -24.924  22.208  21.549  0.00  0.00     0.171 A 
ATOM      5  F   UNL d   1     -24.327  21.629  20.485  0.00  0.00    -0.202 F 
ATOM      6  C   UNL d   1     -24.301  23.271  22.207  0.00  0.00     0.058 A 
ATOM      7  C   UNL d   1     -24.922  23.868  23.306  0.00  0.00     0.171 A 
ATOM      8  F   UNL d   1     -24.322  24.897  23.943  0.00  0.00    -0.202 F 
ATOM      9  C   UNL d   1     -26.150  23.406  23.740  0.00  0.00     0.185 A 
ATOM     10  F   UNL d   1     -26.752  23.984  24.802  0.00  0.00    -0.200 F 
ENDROOT
BRANCH   1  11
ATOM     11  N   UNL d   1     -28.011  21.878  23.527  0.00  0.00    -0.317 N 
ATOM     12  C   UNL d   1     -29.147  22.439  23.070  0.00  0.00     0.262 C 
ATOM     13  O   UNL d   1     -29.099  23.292  22.204  0.00  0.00    -0.267 OA
ATOM     14  H   UNL d   1     -28.052  21.147  24.164  0.00  0.00     0.169 HD
BRANCH  12  15
ATOM     15  C   UNL d   1     -30.448  22.020  23.619  0.00  0.00     0.110 A 
ATOM     16  C   UNL d   1     -31.628  21.895  22.925  0.00  0.00     0.051 A 
ATOM     17  N   UNL d   1     -32.573  21.486  23.790  0.00  0.00    -0.270 N 
ATOM     18  C   UNL d   1     -31.865  22.152  21.458  0.00  0.00     0.060 C 
ATOM     19  N   UNL d   1     -31.990  21.359  25.053  0.00  0.00    -0.146 NA
ATOM     20  C   UNL d   1     -33.973  21.234  23.432  0.00  0.00     0.151 C 
ATOM     21  C   UNL d   1     -30.722  21.674  24.967  0.00  0.00     0.199 A 
ATOM     22  C   UNL d   1     -34.270  21.916  22.090  0.00  0.00     0.022 C 
ATOM     23  C   UNL d   1     -33.203  21.511  21.068  0.00  0.00     0.008 C 
BRANCH  21  24
ATOM     24  O   UNL d   1     -29.827  21.670  25.990  0.00  0.00    -0.343 OA
ATOM     25  H   UNL d   1     -28.989  21.235  25.779  0.00  0.00     0.219 HD
ENDBRANCH  21  24
ENDBRANCH  12  15
ENDBRANCH   1  11
BRANCH   6  26
ATOM     26  C   UNL d   1     -22.984  23.765  21.738  0.00  0.00    -0.020 A 
ATOM     27  C   UNL d   1     -21.833  23.498  22.479  0.00  0.00     0.012 A 
ATOM     28  C   UNL d   1     -20.610  23.961  22.039  0.00  0.00     0.001 A 
ATOM     29  C   UNL d   1     -20.524  24.687  20.865  0.00  0.00     0.000 A 
ATOM     30  C   UNL d   1     -21.663  24.954  20.125  0.00  0.00     0.001 A 
ATOM     31  C   UNL d   1     -22.890  24.491  20.553  0.00  0.00     0.012 A 
ENDBRANCH   6  26
TORSDOF 4
ENDMDL
