MODEL 1
REMARK VINA RESULT:     -10.9      0.000      0.000
REMARK  6 active torsions:
REMARK  status: ('A' for Active; 'I' for Inactive)
REMARK    1  A    between atoms: O_2  and  C_3 
REMARK    2  A    between atoms: C_5  and  N_6 
REMARK       I    between atoms: N_6  and  C_7 
REMARK    3  A    between atoms: C_7  and  C_9 
REMARK    4  A    between atoms: C_12  and  O_14 
REMARK    5  A    between atoms: C_18  and  C_19 
REMARK       I    between atoms: C_19  and  N_21 
REMARK    6  A    between atoms: N_21  and  C_22 
ROOT
ATOM      1  C   UNL d   1     -31.867  20.920  24.799  0.00  0.00     0.141 C 
ATOM      2  C   UNL d   1     -31.812  19.856  25.757  0.00  0.00     0.107 C 
ATOM      3  N   UNL d   1     -31.769  19.013  26.517  0.00  0.00    -0.191 NA
ATOM      4  C   UNL d   1     -33.054  21.255  24.220  0.00  0.00     0.065 C 
ATOM      5  C   UNL d   1     -34.311  20.508  24.589  0.00  0.00     0.077 C 
ENDROOT
BRANCH   1   6
ATOM      6  C   UNL d   1     -30.643  21.648  24.440  0.00  0.00     0.269 C 
ATOM      7  N   UNL d   1     -29.451  21.244  24.923  0.00  0.00    -0.320 N 
ATOM      8  H   UNL d   1     -29.409  20.517  25.563  0.00  0.00     0.169 HD
ATOM      9  O   UNL d   1     -30.704  22.616  23.705  0.00  0.00    -0.266 OA
BRANCH   7  10
ATOM     10  C   UNL d   1     -28.278  21.873  24.503  0.00  0.00     0.076 A 
ATOM     11  C   UNL d   1     -27.839  21.715  23.196  0.00  0.00     0.070 A 
ATOM     12  C   UNL d   1     -26.677  22.336  22.775  0.00  0.00     0.086 A 
ATOM     13  C   UNL d   1     -25.942  23.122  23.675  0.00  0.00     0.068 A 
ATOM     14  C   UNL d   1     -26.395  23.282  24.990  0.00  0.00     0.064 A 
ATOM     15  C   UNL d   1     -27.552  22.659  25.397  0.00  0.00     0.144 A 
ATOM     16  F   UNL d   1     -27.986  22.808  26.668  0.00  0.00    -0.204 F 
BRANCH  12  17
ATOM     17  O   UNL d   1     -26.246  22.182  21.498  0.00  0.00    -0.355 OA
ATOM     18  C   UNL d   1     -27.039  21.358  20.641  0.00  0.00     0.210 C 
ENDBRANCH  12  17
BRANCH  13  19
ATOM     19  C   UNL d   1     -24.701  23.782  23.236  0.00  0.00     0.259 C 
ATOM     20  O   UNL d   1     -24.563  24.982  23.388  0.00  0.00    -0.267 OA
ATOM     21  N   UNL d   1     -23.718  23.057  22.666  0.00  0.00    -0.319 N 
ATOM     22  H   UNL d   1     -23.859  22.117  22.472  0.00  0.00     0.169 HD
BRANCH  21  23
ATOM     23  C   UNL d   1     -22.493  23.662  22.354  0.00  0.00     0.096 A 
ATOM     24  C   UNL d   1     -22.257  24.133  21.069  0.00  0.00     0.064 A 
ATOM     25  C   UNL d   1     -21.048  24.729  20.765  0.00  0.00     0.026 A 
ATOM     26 CL   UNL d   1     -23.481  23.973  19.847  0.00  0.00    -0.082 Cl
ATOM     27  C   UNL d   1     -20.074  24.858  21.736  0.00  0.00     0.005 A 
ATOM     28  C   UNL d   1     -20.304  24.391  23.017  0.00  0.00     0.045 A 
ATOM     29  C   UNL d   1     -21.513  23.797  23.331  0.00  0.00     0.144 A 
ATOM     30  F   UNL d   1     -21.740  23.345  24.584  0.00  0.00    -0.204 F 
ENDBRANCH  21  23
ENDBRANCH  13  19
ENDBRANCH   7  10
ENDBRANCH   1   6
BRANCH   4  31
ATOM     31  O   UNL d   1     -33.107  22.253  23.322  0.00  0.00    -0.364 OA
ATOM     32  H   UNL d   1     -32.699  23.093  23.573  0.00  0.00     0.217 HD
ENDBRANCH   4  31
TORSDOF 6
ENDMDL
