MODEL 1
REMARK VINA RESULT:     -10.7      0.000      0.000
REMARK  7 active torsions:
REMARK  status: ('A' for Active; 'I' for Inactive)
REMARK    1  A    between atoms: C_2  and  O_3 
REMARK    2  A    between atoms: O_3  and  C_4 
REMARK    3  A    between atoms: C_8  and  C_9 
REMARK    4  A    between atoms: C_13  and  N_14 
REMARK       I    between atoms: N_14  and  C_15 
REMARK    5  A    between atoms: C_15  and  C_17 
REMARK    6  A    between atoms: C_21  and  C_22 
REMARK    7  A    between atoms: C_22  and  O_24 
ROOT
ATOM      1  C   UNL d   1     -24.591  23.034  22.236  0.00  0.00    -0.020 A 
ATOM      2  C   UNL d   1     -25.196  23.488  23.407  0.00  0.00     0.057 A 
ATOM      3  C   UNL d   1     -26.452  23.030  23.756  0.00  0.00     0.147 A 
ATOM      4  F   UNL d   1     -27.039  23.470  24.891  0.00  0.00    -0.204 F 
ATOM      5  C   UNL d   1     -27.112  22.117  22.940  0.00  0.00     0.113 A 
ATOM      6  C   UNL d   1     -26.507  21.660  21.774  0.00  0.00     0.147 A 
ATOM      7  F   UNL d   1     -27.147  20.769  20.986  0.00  0.00    -0.204 F 
ATOM      8  C   UNL d   1     -25.254  22.119  21.420  0.00  0.00     0.057 A 
ENDROOT
BRANCH   5   9
ATOM      9  N   UNL d   1     -28.385  21.656  23.295  0.00  0.00    -0.318 N 
ATOM     10  C   UNL d   1     -29.476  22.380  22.981  0.00  0.00     0.257 C 
ATOM     11  O   UNL d   1     -29.365  23.389  22.311  0.00  0.00    -0.267 OA
ATOM     12  H   UNL d   1     -28.481  20.813  23.768  0.00  0.00     0.169 HD
BRANCH  10  13
ATOM     13  C   UNL d   1     -30.808  21.948  23.449  0.00  0.00     0.056 A 
ATOM     14  C   UNL d   1     -31.899  21.792  22.615  0.00  0.00     0.093 A 
ATOM     15  S   UNL d   1     -33.276  21.260  23.569  0.00  0.00    -0.094 SA
ATOM     16  C   UNL d   1     -32.357  21.277  25.004  0.00  0.00     0.052 A 
ATOM     17  C   UNL d   1     -31.101  21.658  24.774  0.00  0.00     0.026 A 
BRANCH  14  18
ATOM     18  C   UNL d   1     -31.905  22.026  21.166  0.00  0.00     0.184 C 
ATOM     19  O   UNL d   1     -32.957  22.203  20.583  0.00  0.00    -0.646 OA
BRANCH  18  20
ATOM     20  O   UNL d   1     -30.743  22.044  20.481  0.00  0.00    -0.772 OA
ATOM     21  H   UNL d   1     -30.089  21.369  20.707  0.00  0.00     0.167 HD
ENDBRANCH  18  20
ENDBRANCH  14  18
ENDBRANCH  10  13
ENDBRANCH   5   9
BRANCH   1  22
ATOM     22  C   UNL d   1     -23.242  23.524  21.859  0.00  0.00    -0.023 A 
ATOM     23  C   UNL d   1     -22.999  23.976  20.564  0.00  0.00     0.012 A 
ATOM     24  C   UNL d   1     -21.743  24.432  20.216  0.00  0.00     0.004 A 
ATOM     25  C   UNL d   1     -20.725  24.441  21.150  0.00  0.00     0.037 A 
ATOM     26  C   UNL d   1     -20.958  23.992  22.443  0.00  0.00     0.069 A 
ATOM     27  C   UNL d   1     -22.216  23.538  22.802  0.00  0.00     0.049 A 
BRANCH  26  28
ATOM     28  O   UNL d   1     -19.953  24.005  23.358  0.00  0.00    -0.351 OA
BRANCH  28  29
ATOM     29  C   UNL d   1     -19.279  25.247  23.565  0.00  0.00     0.171 C 
ATOM     30  C   UNL d   1     -20.166  26.176  24.395  0.00  0.00     0.034 C 
ENDBRANCH  28  29
ENDBRANCH  26  28
ENDBRANCH   1  22
TORSDOF 7
ENDMDL
