MODEL 1
REMARK VINA RESULT:      -9.5      0.000      0.000
REMARK  5 active torsions:
REMARK  status: ('A' for Active; 'I' for Inactive)
REMARK    1  A    between atoms: C_2  and  O_3 
REMARK    2  A    between atoms: O_3  and  C_4 
REMARK    3  A    between atoms: C_4  and  C_6 
REMARK    4  A    between atoms: C_8  and  N_9 
REMARK    5  A    between atoms: N_9  and  C_10 
ROOT
ATOM      1  N   UNL d   1     -28.265  22.755  24.145  0.00  0.00    -0.335 N 
ATOM      2  H   UNL d   1     -28.350  22.880  25.103  0.00  0.00     0.168 HD
ENDROOT
BRANCH   1   3
ATOM      3  C   UNL d   1     -27.023  22.816  23.549  0.00  0.00     0.172 A 
ATOM      4  S   UNL d   1     -25.821  23.974  23.917  0.00  0.00    -0.044 SA
ATOM      5  C   UNL d   1     -24.740  23.250  22.729  0.00  0.00     0.107 A 
ATOM      6  C   UNL d   1     -25.395  22.190  22.160  0.00  0.00     0.057 A 
ATOM      7  N   UNL d   1     -26.600  21.995  22.630  0.00  0.00    -0.228 NA
ATOM      8  C   UNL d   1     -24.780  21.322  21.094  0.00  0.00     0.072 C 
BRANCH   5   9
ATOM      9  C   UNL d   1     -23.428  23.685  22.417  0.00  0.00     0.302 C 
ATOM     10  O   UNL d   1     -22.471  23.182  22.974  0.00  0.00    -0.259 OA
BRANCH   9  11
ATOM     11  O   UNL d   1     -23.241  24.660  21.502  0.00  0.00    -0.317 OA
BRANCH  11  12
ATOM     12  C   UNL d   1     -22.612  24.286  20.274  0.00  0.00     0.174 C 
ATOM     13  C   UNL d   1     -21.223  24.921  20.199  0.00  0.00     0.034 C 
ENDBRANCH  11  12
ENDBRANCH   9  11
ENDBRANCH   5   9
ENDBRANCH   1   3
BRANCH   1  14
ATOM     14  C   UNL d   1     -29.401  22.512  23.369  0.00  0.00     0.035 A 
ATOM     15  C   UNL d   1     -30.563  22.087  23.975  0.00  0.00     0.041 A 
ATOM     16  C   UNL d   1     -31.703  21.845  23.191  0.00  0.00    -0.024 A 
ATOM     17  C   UNL d   1     -31.639  22.041  21.789  0.00  0.00    -0.026 A 
ATOM     18  C   UNL d   1     -32.907  21.410  23.773  0.00  0.00     0.012 A 
ATOM     19  C   UNL d   1     -30.438  22.481  21.204  0.00  0.00     0.014 A 
ATOM     20  C   UNL d   1     -32.781  21.797  21.007  0.00  0.00     0.012 A 
ATOM     21  C   UNL d   1     -29.347  22.704  21.982  0.00  0.00     0.030 A 
ATOM     22  C   UNL d   1     -33.930  21.378  21.604  0.00  0.00     0.001 A 
ATOM     23  C   UNL d   1     -33.993  21.185  22.983  0.00  0.00     0.001 A 
ENDBRANCH   1  14
TORSDOF 5
ENDMDL
