MODEL 1
REMARK VINA RESULT:     -13.1      0.000      0.000
REMARK  2 active torsions:
REMARK  status: ('A' for Active; 'I' for Inactive)
REMARK    1  A    between atoms: N_15  and  C_16 
REMARK    2  A    between atoms: C_19  and  C_20 
ROOT
ATOM      1  O   UNL d   1     -32.184  20.996  25.927  0.00  0.00    -0.285 OA
ATOM      2  C   UNL d   1     -31.494  21.382  25.005  0.00  0.00     0.216 A 
ATOM      3  C   UNL d   1     -32.082  21.557  23.658  0.00  0.00     0.031 A 
ATOM      4  C   UNL d   1     -33.427  21.283  23.437  0.00  0.00     0.016 A 
ATOM      5  C   UNL d   1     -33.967  21.451  22.173  0.00  0.00     0.001 A 
ATOM      6  C   UNL d   1     -33.176  21.889  21.127  0.00  0.00     0.001 A 
ATOM      7  C   UNL d   1     -31.835  22.167  21.331  0.00  0.00     0.016 A 
ATOM      8  C   UNL d   1     -31.277  22.003  22.595  0.00  0.00     0.031 A 
ATOM      9  C   UNL d   1     -29.846  22.296  22.827  0.00  0.00     0.214 A 
ATOM     10  O   UNL d   1     -29.146  22.682  21.912  0.00  0.00    -0.285 OA
ATOM     11  C   UNL d   1     -29.273  22.118  24.169  0.00  0.00     0.146 A 
ATOM     12  C   UNL d   1     -30.066  21.677  25.222  0.00  0.00     0.164 A 
ATOM     13  N   UNL d   1     -29.260  21.622  26.291  0.00  0.00    -0.125 NA
ATOM     14  N   UNL d   1     -28.076  21.985  25.945  0.00  0.00    -0.059 NA
ATOM     15  N   UNL d   1     -28.029  22.297  24.696  0.00  0.00    -0.209 N 
ENDROOT
BRANCH  15  16
ATOM     16  C   UNL d   1     -26.898  22.734  24.002  0.00  0.00     0.060 A 
ATOM     17  C   UNL d   1     -26.374  23.998  24.254  0.00  0.00     0.032 A 
ATOM     18  C   UNL d   1     -25.255  24.429  23.574  0.00  0.00     0.014 A 
ATOM     19  C   UNL d   1     -24.655  23.602  22.626  0.00  0.00    -0.023 A 
ATOM     20  C   UNL d   1     -25.181  22.336  22.375  0.00  0.00     0.014 A 
ATOM     21  C   UNL d   1     -26.298  21.906  23.060  0.00  0.00     0.032 A 
BRANCH  19  22
ATOM     22  C   UNL d   1     -23.453  24.066  21.890  0.00  0.00     0.013 A 
ATOM     23  C   UNL d   1     -23.370  23.897  20.508  0.00  0.00     0.127 A 
ATOM     24  C   UNL d   1     -22.244  24.327  19.830  0.00  0.00     0.043 A 
ATOM     25  F   UNL d   1     -24.383  23.310  19.835  0.00  0.00    -0.205 F 
ATOM     26  C   UNL d   1     -21.208  24.933  20.517  0.00  0.00     0.003 A 
ATOM     27  C   UNL d   1     -21.291  25.109  21.888  0.00  0.00     0.001 A 
ATOM     28  C   UNL d   1     -22.406  24.678  22.577  0.00  0.00     0.015 A 
ENDBRANCH  19  22
ENDBRANCH  15  16
TORSDOF 2
ENDMDL
