MODEL 1
REMARK VINA RESULT:      -9.3      0.000      0.000
REMARK  7 active torsions:
REMARK  status: ('A' for Active; 'I' for Inactive)
REMARK    1  A    between atoms: C_2  and  N_3 
REMARK    2  A    between atoms: C_4  and  C_5 
REMARK    3  A    between atoms: C_5  and  O_6 
REMARK    4  A    between atoms: N_8  and  C_9 
REMARK    5  A    between atoms: C_12  and  C_13 
REMARK    6  A    between atoms: N_17  and  C_18 
REMARK    7  A    between atoms: C_20  and  O_21 
ROOT
ATOM      1  C   UNL d   1     -28.716  22.150  22.366  0.00  0.00     0.103 A 
ATOM      2  C   UNL d   1     -28.042  23.078  23.142  0.00  0.00     0.048 A 
ATOM      3  C   UNL d   1     -26.686  23.304  22.914  0.00  0.00    -0.010 A 
ATOM      4  C   UNL d   1     -25.920  24.274  23.701  0.00  0.00    -0.027 A 
ATOM      5  C   UNL d   1     -24.617  24.454  23.438  0.00  0.00     0.110 A 
ATOM      6  N   UNL d   1     -23.967  23.761  22.453  0.00  0.00    -0.270 N 
ATOM      7  C   UNL d   1     -24.591  22.851  21.680  0.00  0.00     0.264 A 
ATOM      8  O   UNL d   1     -23.978  22.255  20.813  0.00  0.00    -0.267 OA
ATOM      9  C   UNL d   1     -26.017  22.588  21.894  0.00  0.00     0.046 A 
ATOM     10  C   UNL d   1     -26.718  21.657  21.124  0.00  0.00     0.062 A 
ATOM     11  C   UNL d   1     -28.047  21.445  21.360  0.00  0.00     0.146 A 
ATOM     12  F   UNL d   1     -28.723  20.544  20.615  0.00  0.00    -0.204 F 
ENDROOT
BRANCH   1  13
ATOM     13  N   UNL d   1     -30.075  21.915  22.589  0.00  0.00    -0.178 N 
ATOM     14  N   UNL d   1     -30.657  21.477  23.787  0.00  0.00    -0.147 NA
ATOM     15  C   UNL d   1     -31.935  21.378  23.602  0.00  0.00     0.154 A 
ATOM     16  N   UNL d   1     -32.223  21.739  22.308  0.00  0.00    -0.283 N 
ATOM     17  C   UNL d   1     -31.071  22.074  21.692  0.00  0.00     0.351 A 
ATOM     18  O   UNL d   1     -30.952  22.448  20.540  0.00  0.00    -0.244 OA
BRANCH  15  19
ATOM     19  C   UNL d   1     -32.939  20.938  24.634  0.00  0.00     0.244 C 
BRANCH  19  20
ATOM     20  O   UNL d   1     -32.323  20.929  25.924  0.00  0.00    -0.393 OA
ATOM     21  H   UNL d   1     -32.719  21.548  26.553  0.00  0.00     0.209 HD
ENDBRANCH  19  20
ENDBRANCH  15  19
BRANCH  16  22
ATOM     22  C   UNL d   1     -33.558  21.763  21.702  0.00  0.00     0.131 C 
ATOM     23  C   UNL d   1     -33.951  20.347  21.276  0.00  0.00     0.027 C 
ENDBRANCH  16  22
ENDBRANCH   1  13
BRANCH   4  24
ATOM     24  C   UNL d   1     -26.590  25.061  24.798  0.00  0.00     0.013 C 
ATOM     25  C   UNL d   1     -26.862  24.141  25.992  0.00  0.00     0.015 C 
ATOM     26  C   UNL d   1     -25.676  26.207  25.236  0.00  0.00     0.015 C 
ENDBRANCH   4  24
BRANCH   6  27
ATOM     27  C   UNL d   1     -22.610  24.011  22.237  0.00  0.00     0.178 A 
ATOM     28  C   UNL d   1     -22.171  24.381  20.971  0.00  0.00     0.163 A 
ATOM     29  C   UNL d   1     -20.823  24.632  20.768  0.00  0.00     0.050 A 
ATOM     30  F   UNL d   1     -23.050  24.501  19.951  0.00  0.00    -0.202 F 
ATOM     31  C   UNL d   1     -19.954  24.493  21.839  0.00  0.00     0.061 A 
ATOM     32  C   UNL d   1     -20.460  24.114  23.076  0.00  0.00     0.166 A 
ATOM     33  N   UNL d   1     -21.752  23.887  23.239  0.00  0.00    -0.203 NA
BRANCH  32  34
ATOM     34  O   UNL d   1     -19.616  23.975  24.130  0.00  0.00    -0.339 OA
ATOM     35  C   UNL d   1     -19.037  25.170  24.660  0.00  0.00     0.211 C 
ENDBRANCH  32  34
ENDBRANCH   6  27
TORSDOF 7
ENDMDL
