MODEL 1
REMARK VINA RESULT:     -10.3      0.000      0.000
REMARK  4 active torsions:
REMARK  status: ('A' for Active; 'I' for Inactive)
REMARK    1  A    between atoms: C_2  and  C_4 
REMARK    2  A    between atoms: C_4  and  C_7 
REMARK       I    between atoms: C_7  and  N_9 
REMARK    3  A    between atoms: N_9  and  C_10 
REMARK    4  A    between atoms: C_13  and  C_14 
ROOT
ATOM      1  C   UNL d   1     -24.061  23.906  23.205  0.00  0.00     0.253 C 
ATOM      2  C   UNL d   1     -23.452  23.653  21.889  0.00  0.00     0.081 C 
ATOM      3  N   UNL d   1     -22.982  23.457  20.873  0.00  0.00    -0.196 NA
ENDROOT
BRANCH   1   4
ATOM      4  C   UNL d   1     -24.239  25.390  23.397  0.00  0.00     0.149 C 
ATOM      5  C   UNL d   1     -23.071  26.321  23.200  0.00  0.00     0.093 C 
ATOM      6  O   UNL d   1     -25.317  25.834  23.711  0.00  0.00    -0.296 OA
ENDBRANCH   1   4
BRANCH   1   7
ATOM      7  C   UNL d   1     -25.404  23.226  23.276  0.00  0.00     0.247 C 
ATOM      8  O   UNL d   1     -25.771  22.514  22.365  0.00  0.00    -0.271 OA
ATOM      9  N   UNL d   1     -26.199  23.414  24.347  0.00  0.00    -0.324 N 
ATOM     10  H   UNL d   1     -25.874  23.917  25.110  0.00  0.00     0.169 HD
BRANCH   9  11
ATOM     11  C   UNL d   1     -27.492  22.883  24.360  0.00  0.00     0.056 A 
ATOM     12  C   UNL d   1     -27.948  22.189  25.477  0.00  0.00     0.061 A 
ATOM     13  C   UNL d   1     -29.226  21.670  25.493  0.00  0.00     0.038 A 
ATOM     14 CL   UNL d   1     -26.910  21.984  26.853  0.00  0.00    -0.082 Cl
ATOM     15  C   UNL d   1     -30.057  21.830  24.385  0.00  0.00    -0.024 A 
ATOM     16  C   UNL d   1     -29.595  22.519  23.265  0.00  0.00     0.014 A 
ATOM     17  C   UNL d   1     -28.319  23.042  23.255  0.00  0.00     0.032 A 
BRANCH  15  18
ATOM     18  C   UNL d   1     -31.428  21.265  24.398  0.00  0.00    -0.024 A 
ATOM     19  C   UNL d   1     -32.234  21.361  23.266  0.00  0.00     0.036 A 
ATOM     20  C   UNL d   1     -33.511  20.832  23.284  0.00  0.00     0.034 A 
ATOM     21  C   UNL d   1     -33.988  20.208  24.424  0.00  0.00     0.024 A 
ATOM     22 CL   UNL d   1     -34.518  20.952  21.876  0.00  0.00    -0.084 Cl
ATOM     23  C   UNL d   1     -33.190  20.111  25.550  0.00  0.00     0.003 A 
ATOM     24  C   UNL d   1     -31.912  20.631  25.541  0.00  0.00     0.012 A 
ENDBRANCH  15  18
ENDBRANCH   9  11
ENDBRANCH   1   7
TORSDOF 4
ENDMDL
