MODEL 1
REMARK VINA RESULT:      -8.1      0.000      0.000
REMARK  7 active torsions:
REMARK  status: ('A' for Active; 'I' for Inactive)
REMARK    1  A    between atoms: C_2  and  N_3 
REMARK    2  A    between atoms: C_4  and  C_5 
REMARK    3  A    between atoms: C_5  and  O_6 
REMARK    4  A    between atoms: N_8  and  C_9 
REMARK    5  A    between atoms: C_12  and  C_13 
REMARK    6  A    between atoms: N_17  and  C_18 
REMARK    7  A    between atoms: C_20  and  O_21 
ROOT
ATOM      1  C   UNL d   1     -21.946  24.436  22.980  0.00  0.00     0.103 A 
ATOM      2  C   UNL d   1     -21.608  25.108  24.141  0.00  0.00     0.048 A 
ATOM      3  C   UNL d   1     -20.334  25.658  24.268  0.00  0.00    -0.010 A 
ATOM      4  C   UNL d   1     -19.919  26.382  25.472  0.00  0.00    -0.027 A 
ATOM      5  C   UNL d   1     -18.678  26.891  25.540  0.00  0.00     0.109 A 
ATOM      6  N   UNL d   1     -17.776  26.760  24.520  0.00  0.00    -0.288 N 
ATOM      7  C   UNL d   1     -18.074  26.115  23.374  0.00  0.00     0.263 A 
ATOM      8  O   UNL d   1     -17.245  26.023  22.486  0.00  0.00    -0.267 OA
ATOM      9  C   UNL d   1     -19.403  25.521  23.211  0.00  0.00     0.046 A 
ATOM     10  C   UNL d   1     -19.767  24.837  22.049  0.00  0.00     0.062 A 
ATOM     11  C   UNL d   1     -21.021  24.304  21.940  0.00  0.00     0.146 A 
ATOM     12  F   UNL d   1     -21.370  23.644  20.815  0.00  0.00    -0.204 F 
ENDROOT
BRANCH   1  13
ATOM     13  N   UNL d   1     -23.222  23.882  22.845  0.00  0.00    -0.178 N 
ATOM     14  N   UNL d   1     -23.547  22.695  22.174  0.00  0.00    -0.147 NA
ATOM     15  C   UNL d   1     -24.825  22.515  22.267  0.00  0.00     0.154 A 
ATOM     16  N   UNL d   1     -25.367  23.554  22.984  0.00  0.00    -0.283 N 
ATOM     17  C   UNL d   1     -24.370  24.390  23.340  0.00  0.00     0.351 A 
ATOM     18  O   UNL d   1     -24.485  25.414  23.988  0.00  0.00    -0.244 OA
BRANCH  15  19
ATOM     19  C   UNL d   1     -25.594  21.357  21.685  0.00  0.00     0.244 C 
BRANCH  19  20
ATOM     20  O   UNL d   1     -26.158  21.744  20.430  0.00  0.00    -0.393 OA
ATOM     21  H   UNL d   1     -26.406  22.678  20.382  0.00  0.00     0.209 HD
ENDBRANCH  19  20
ENDBRANCH  15  19
BRANCH  16  22
ATOM     22  C   UNL d   1     -26.785  23.723  23.311  0.00  0.00     0.131 C 
ATOM     23  C   UNL d   1     -27.067  23.116  24.687  0.00  0.00     0.027 C 
ENDBRANCH  16  22
ENDBRANCH   1  13
BRANCH   4  24
ATOM     24  C   UNL d   1     -20.875  26.553  26.624  0.00  0.00     0.013 C 
ATOM     25  C   UNL d   1     -20.124  26.366  27.943  0.00  0.00     0.015 C 
ATOM     26  C   UNL d   1     -21.483  27.955  26.577  0.00  0.00     0.015 C 
ENDBRANCH   4  24
BRANCH   6  27
ATOM     27  C   UNL d   1     -16.505  27.319  24.668  0.00  0.00     0.053 A 
ATOM     28  C   UNL d   1     -15.478  26.606  25.286  0.00  0.00    -0.017 A 
ATOM     29  C   UNL d   1     -14.237  27.192  25.420  0.00  0.00     0.128 A 
ATOM     30  C   UNL d   1     -15.721  25.211  25.803  0.00  0.00     0.052 C 
ATOM     31  N   UNL d   1     -14.013  28.414  24.972  0.00  0.00    -0.236 NA
ATOM     32  C   UNL d   1     -14.959  29.125  24.379  0.00  0.00     0.165 A 
ATOM     33  C   UNL d   1     -16.233  28.604  24.207  0.00  0.00     0.088 A 
BRANCH  32  34
ATOM     34  O   UNL d   1     -14.680  30.376  23.935  0.00  0.00    -0.339 OA
ATOM     35  C   UNL d   1     -15.681  31.021  23.144  0.00  0.00     0.211 C 
ENDBRANCH  32  34
ENDBRANCH   6  27
TORSDOF 7
ENDMDL
