MODEL 1
REMARK VINA RESULT:      -9.6      0.000      0.000
REMARK  4 active torsions:
REMARK  status: ('A' for Active; 'I' for Inactive)
REMARK    1  A    between atoms: C_2  and  O_3 
REMARK    2  A    between atoms: C_2  and  C_4 
REMARK    3  A    between atoms: C_5  and  O_6 
REMARK    4  A    between atoms: C_7  and  C_8 
ROOT
ATOM      1  C   UNL d   1     -29.740  21.801  24.619  0.00  0.00     0.085 A 
ATOM      2  C   UNL d   1     -28.413  22.231  24.562  0.00  0.00     0.113 A 
ATOM      3  C   UNL d   1     -27.899  22.721  23.343  0.00  0.00     0.102 A 
ATOM      4  N   UNL d   1     -28.627  22.776  22.249  0.00  0.00    -0.245 NA
ATOM      5  C   UNL d   1     -29.901  22.381  22.214  0.00  0.00     0.069 A 
ATOM      6  C   UNL d   1     -30.649  22.455  21.024  0.00  0.00     0.034 A 
ATOM      7  C   UNL d   1     -31.946  22.046  21.015  0.00  0.00     0.021 A 
ATOM      8  C   UNL d   1     -32.552  21.551  22.169  0.00  0.00     0.011 A 
ATOM      9 BR   UNL d   1     -34.358  20.994  22.110  0.00  0.00    -0.051 Br
ATOM     10  C   UNL d   1     -31.858  21.465  23.340  0.00  0.00     0.034 A 
ATOM     11  C   UNL d   1     -30.522  21.877  23.383  0.00  0.00     0.014 A 
ENDROOT
BRANCH   3  12
ATOM     12  C   UNL d   1     -26.492  23.180  23.292  0.00  0.00    -0.004 A 
ATOM     13  C   UNL d   1     -26.136  24.408  23.851  0.00  0.00     0.015 A 
ATOM     14  C   UNL d   1     -24.824  24.831  23.801  0.00  0.00     0.024 A 
ATOM     15  C   UNL d   1     -23.861  24.040  23.197  0.00  0.00     0.034 A 
ATOM     16  C   UNL d   1     -24.209  22.820  22.641  0.00  0.00     0.024 A 
ATOM     17 CL   UNL d   1     -22.212  24.579  23.137  0.00  0.00    -0.084 Cl
ATOM     18  C   UNL d   1     -25.519  22.389  22.682  0.00  0.00     0.015 A 
ENDBRANCH   3  12
BRANCH   2  19
ATOM     19  O   UNL d   1     -27.630  22.185  25.667  0.00  0.00    -0.357 OA
ATOM     20  H   UNL d   1     -27.880  21.496  26.298  0.00  0.00     0.217 HD
ENDBRANCH   2  19
BRANCH   1  21
ATOM     21  C   UNL d   1     -30.327  21.287  25.869  0.00  0.00     0.180 C 
ATOM     22  O   UNL d   1     -31.153  21.946  26.467  0.00  0.00    -0.646 OA
BRANCH  21  23
ATOM     23  O   UNL d   1     -29.946  20.086  26.348  0.00  0.00    -0.773 OA
ATOM     24  H   UNL d   1     -29.938  19.347  25.724  0.00  0.00     0.167 HD
ENDBRANCH  21  23
ENDBRANCH   1  21
TORSDOF 4
ENDMDL
