MODEL 1
REMARK VINA RESULT:     -10.9      0.000      0.000
REMARK  7 active torsions:
REMARK  status: ('A' for Active; 'I' for Inactive)
REMARK    1  A    between atoms: O_2  and  C_3 
REMARK    2  A    between atoms: C_7  and  C_8 
REMARK    3  A    between atoms: C_11  and  N_12 
REMARK       I    between atoms: N_12  and  C_13 
REMARK    4  A    between atoms: C_13  and  C_15 
REMARK    5  A    between atoms: C_16  and  C_17 
REMARK    6  A    between atoms: C_17  and  O_19 
REMARK    7  A    between atoms: C_20  and  O_21 
ROOT
ATOM      1  C   UNL d   1     -28.426  22.388  23.685  0.00  0.00    -0.023 A 
ATOM      2  C   UNL d   1     -27.789  23.063  24.725  0.00  0.00     0.014 A 
ATOM      3  C   UNL d   1     -26.455  23.395  24.618  0.00  0.00     0.034 A 
ATOM      4  C   UNL d   1     -25.743  23.057  23.473  0.00  0.00     0.074 A 
ATOM      5  C   UNL d   1     -26.373  22.376  22.435  0.00  0.00     0.143 A 
ATOM      6  F   UNL d   1     -25.679  22.043  21.325  0.00  0.00    -0.204 F 
ATOM      7  C   UNL d   1     -27.711  22.048  22.536  0.00  0.00     0.057 A 
ENDROOT
BRANCH   4   8
ATOM      8  N   UNL d   1     -24.392  23.393  23.368  0.00  0.00    -0.321 N 
ATOM      9  C   UNL d   1     -24.023  24.686  23.281  0.00  0.00     0.253 C 
ATOM     10  O   UNL d   1     -24.855  25.565  23.398  0.00  0.00    -0.268 OA
ATOM     11  H   UNL d   1     -23.718  22.695  23.355  0.00  0.00     0.169 HD
BRANCH   9  12
ATOM     12  C   UNL d   1     -22.608  25.037  23.047  0.00  0.00     0.025 C 
ATOM     13  C   UNL d   1     -21.646  25.492  24.119  0.00  0.00     0.048 C 
ATOM     14  C   UNL d   1     -20.242  25.316  23.493  0.00  0.00     0.042 C 
ATOM     15  C   UNL d   1     -20.555  25.425  21.983  0.00  0.00     0.159 C 
ATOM     16  C   UNL d   1     -22.001  25.003  21.853  0.00  0.00     0.055 C 
BRANCH  15  17
ATOM     17  O   UNL d   1     -19.712  24.547  21.235  0.00  0.00    -0.391 OA
ATOM     18  H   UNL d   1     -18.792  24.539  21.529  0.00  0.00     0.210 HD
ENDBRANCH  15  17
BRANCH  16  19
ATOM     19  C   UNL d   1     -22.650  24.609  20.590  0.00  0.00     0.175 C 
ATOM     20  O   UNL d   1     -23.067  23.477  20.448  0.00  0.00    -0.646 OA
BRANCH  19  21
ATOM     21  O   UNL d   1     -22.781  25.506  19.591  0.00  0.00    -0.773 OA
ATOM     22  H   UNL d   1     -22.361  25.289  18.749  0.00  0.00     0.167 HD
ENDBRANCH  19  21
ENDBRANCH  16  19
ENDBRANCH   9  12
ENDBRANCH   4   8
BRANCH   1  23
ATOM     23  C   UNL d   1     -29.860  22.030  23.799  0.00  0.00    -0.023 A 
ATOM     24  C   UNL d   1     -30.758  22.415  22.805  0.00  0.00     0.012 A 
ATOM     25  C   UNL d   1     -32.092  22.077  22.911  0.00  0.00     0.004 A 
ATOM     26  C   UNL d   1     -32.544  21.366  24.008  0.00  0.00     0.037 A 
ATOM     27  C   UNL d   1     -31.657  20.984  25.005  0.00  0.00     0.069 A 
ATOM     28  C   UNL d   1     -30.316  21.314  24.904  0.00  0.00     0.049 A 
BRANCH  27  29
ATOM     29  O   UNL d   1     -32.105  20.286  26.082  0.00  0.00    -0.356 OA
ATOM     30  C   UNL d   1     -31.395  19.093  26.423  0.00  0.00     0.210 C 
ENDBRANCH  27  29
ENDBRANCH   1  23
TORSDOF 7
ENDMDL
