MODEL 1
REMARK VINA RESULT:     -10.5      0.000      0.000
REMARK  6 active torsions:
REMARK  status: ('A' for Active; 'I' for Inactive)
REMARK    1  A    between atoms: N_2  and  N_3 
REMARK    2  A    between atoms: N_2  and  C_14 
REMARK    3  A    between atoms: C_4  and  C_5 
REMARK    4  A    between atoms: C_10  and  C_11 
REMARK    5  A    between atoms: C_11  and  O_13 
REMARK    6  A    between atoms: C_16  and  C_17 
ROOT
ATOM      1  C   UNL d   1     -27.458  22.817  25.063  0.00  0.00     0.182 C 
ATOM      2  N   UNL d   1     -27.734  22.239  23.746  0.00  0.00    -0.251 N 
ENDROOT
BRANCH   2   3
ATOM      3  N   UNL d   1     -29.002  21.716  23.460  0.00  0.00    -0.182 NA
ATOM      4  C   UNL d   1     -30.033  22.507  23.407  0.00  0.00     0.151 C 
BRANCH   4   5
ATOM      5  C   UNL d   1     -31.364  21.959  23.107  0.00  0.00    -0.000 A 
ATOM      6  C   UNL d   1     -32.080  21.252  24.096  0.00  0.00     0.049 A 
ATOM      7  C   UNL d   1     -33.345  20.742  23.796  0.00  0.00     0.019 A 
ATOM      8  C   UNL d   1     -33.883  20.927  22.540  0.00  0.00     0.001 A 
ATOM      9  C   UNL d   1     -33.177  21.617  21.567  0.00  0.00     0.001 A 
ATOM     10  C   UNL d   1     -31.927  22.128  21.839  0.00  0.00     0.014 A 
BRANCH   6  11
ATOM     11  C   UNL d   1     -31.501  21.057  25.436  0.00  0.00     0.177 C 
ATOM     12  O   UNL d   1     -31.768  21.834  26.332  0.00  0.00    -0.646 OA
BRANCH  11  13
ATOM     13  O   UNL d   1     -30.674  20.019  25.669  0.00  0.00    -0.773 OA
ATOM     14  H   UNL d   1     -29.811  20.222  26.058  0.00  0.00     0.167 HD
ENDBRANCH  11  13
ENDBRANCH   6  11
ENDBRANCH   4   5
ENDBRANCH   2   3
BRANCH   2  15
ATOM     15  C   UNL d   1     -26.740  22.210  22.781  0.00  0.00     0.189 A 
ATOM     16  S   UNL d   1     -26.854  21.390  21.226  0.00  0.00    -0.060 SA
ATOM     17  C   UNL d   1     -25.224  21.928  20.823  0.00  0.00     0.085 A 
ATOM     18  C   UNL d   1     -24.750  22.645  21.857  0.00  0.00     0.076 A 
ATOM     19  N   UNL d   1     -25.578  22.778  22.884  0.00  0.00    -0.222 NA
BRANCH  18  20
ATOM     20  C   UNL d   1     -23.394  23.245  21.850  0.00  0.00    -0.007 A 
ATOM     21  C   UNL d   1     -22.933  23.919  20.721  0.00  0.00     0.014 A 
ATOM     22  C   UNL d   1     -21.670  24.477  20.721  0.00  0.00     0.001 A 
ATOM     23  C   UNL d   1     -20.863  24.367  21.840  0.00  0.00     0.000 A 
ATOM     24  C   UNL d   1     -21.316  23.700  22.964  0.00  0.00     0.001 A 
ATOM     25  C   UNL d   1     -22.579  23.143  22.977  0.00  0.00     0.014 A 
ENDBRANCH  18  20
ENDBRANCH   2  15
TORSDOF 6
ENDMDL
