MODEL 1
REMARK VINA RESULT:     -10.8      0.000      0.000
REMARK  7 active torsions:
REMARK  status: ('A' for Active; 'I' for Inactive)
REMARK    1  A    between atoms: C_2  and  C_3 
REMARK    2  A    between atoms: C_3  and  O_4 
REMARK    3  A    between atoms: C_5  and  C_8 
REMARK       I    between atoms: C_8  and  N_10 
REMARK    4  A    between atoms: N_10  and  C_11 
REMARK    5  A    between atoms: C_14  and  C_15 
REMARK    6  A    between atoms: C_25  and  C_26 
REMARK    7  A    between atoms: C_26  and  O_28 
ROOT
ATOM      1  C   UNL d   1     -32.552  21.305  22.914  0.00  0.00     0.069 C 
ATOM      2  C   UNL d   1     -31.644  21.327  23.930  0.00  0.00     0.141 C 
ATOM      3  C   UNL d   1     -31.930  20.654  25.161  0.00  0.00     0.107 C 
ATOM      4  N   UNL d   1     -32.159  20.121  26.138  0.00  0.00    -0.191 NA
ENDROOT
BRANCH   2   5
ATOM      5  C   UNL d   1     -30.369  22.041  23.762  0.00  0.00     0.269 C 
ATOM      6  O   UNL d   1     -30.350  23.135  23.230  0.00  0.00    -0.266 OA
ATOM      7  N   UNL d   1     -29.223  21.482  24.198  0.00  0.00    -0.322 N 
ATOM      8  H   UNL d   1     -29.245  20.642  24.682  0.00  0.00     0.169 HD
BRANCH   7   9
ATOM      9  C   UNL d   1     -27.999  22.115  23.951  0.00  0.00     0.036 A 
ATOM     10  C   UNL d   1     -27.243  21.748  22.849  0.00  0.00     0.048 A 
ATOM     11  C   UNL d   1     -26.022  22.378  22.603  0.00  0.00     0.052 A 
ATOM     12  C   UNL d   1     -25.570  23.383  23.478  0.00  0.00    -0.009 A 
ATOM     13  C   UNL d   1     -26.341  23.736  24.584  0.00  0.00     0.015 A 
ATOM     14  C   UNL d   1     -27.547  23.109  24.813  0.00  0.00     0.030 A 
BRANCH  11  15
ATOM     15  C   UNL d   1     -25.211  21.992  21.433  0.00  0.00     0.293 C 
ATOM     16  O   UNL d   1     -24.567  20.963  21.455  0.00  0.00    -0.259 OA
BRANCH  15  17
ATOM     17  O   UNL d   1     -25.186  22.781  20.342  0.00  0.00    -0.322 OA
ATOM     18  C   UNL d   1     -24.225  22.442  19.307  0.00  0.00     0.213 C 
ENDBRANCH  15  17
ENDBRANCH  11  15
BRANCH  12  19
ATOM     19  C   UNL d   1     -24.277  24.059  23.227  0.00  0.00    -0.022 A 
ATOM     20  C   UNL d   1     -23.120  23.306  23.031  0.00  0.00     0.052 A 
ATOM     21  C   UNL d   1     -21.914  23.941  22.791  0.00  0.00     0.102 A 
ATOM     22  C   UNL d   1     -21.855  25.331  22.756  0.00  0.00     0.102 A 
ATOM     23  O   UNL d   1     -20.794  23.191  22.600  0.00  0.00    -0.346 OA
ATOM     24  C   UNL d   1     -23.006  26.081  22.959  0.00  0.00     0.040 A 
ATOM     25  O   UNL d   1     -20.678  25.971  22.518  0.00  0.00    -0.346 OA
ATOM     26  C   UNL d   1     -24.211  25.453  23.195  0.00  0.00     0.015 A 
ATOM     27  C   UNL d   1     -19.481  25.204  22.691  0.00  0.00     0.202 C 
ATOM     28  C   UNL d   1     -19.675  23.850  21.996  0.00  0.00     0.202 C 
ENDBRANCH  12  19
ENDBRANCH   7   9
ENDBRANCH   2   5
BRANCH   1  29
ATOM     29  C   UNL d   1     -33.858  20.574  23.085  0.00  0.00     0.061 C 
ATOM     30  C   UNL d   1     -34.255  19.922  21.758  0.00  0.00     0.012 C 
ENDBRANCH   1  29
BRANCH   1  31
ATOM     31  O   UNL d   1     -32.282  21.937  21.759  0.00  0.00    -0.363 OA
ATOM     32  H   UNL d   1     -32.286  22.904  21.776  0.00  0.00     0.217 HD
ENDBRANCH   1  31
TORSDOF 7
ENDMDL
