MODEL 1
REMARK VINA RESULT:      -9.6      0.000      0.000
REMARK  7 active torsions:
REMARK  status: ('A' for Active; 'I' for Inactive)
REMARK    1  A    between atoms: C_2  and  C_3 
REMARK    2  A    between atoms: C_3  and  O_5 
REMARK    3  A    between atoms: O_5  and  C_6 
REMARK    4  A    between atoms: C_8  and  N_9 
REMARK       I    between atoms: N_9  and  C_10 
REMARK    5  A    between atoms: C_10  and  C_12 
REMARK    6  A    between atoms: C_15  and  O_17 
REMARK    7  A    between atoms: C_21  and  C_22 
ROOT
ATOM      1  C   UNL d   1     -31.043  21.978  22.761  0.00  0.00     0.141 C 
ATOM      2  C   UNL d   1     -31.973  21.927  21.673  0.00  0.00     0.107 C 
ATOM      3  N   UNL d   1     -32.711  21.887  20.810  0.00  0.00    -0.191 NA
ATOM      4  C   UNL d   1     -31.435  21.599  24.010  0.00  0.00     0.065 C 
ATOM      5  C   UNL d   1     -32.846  21.126  24.247  0.00  0.00     0.077 C 
ENDROOT
BRANCH   1   6
ATOM      6  C   UNL d   1     -29.666  22.438  22.530  0.00  0.00     0.269 C 
ATOM      7  N   UNL d   1     -28.629  21.741  23.034  0.00  0.00    -0.320 N 
ATOM      8  H   UNL d   1     -28.793  20.972  23.603  0.00  0.00     0.169 HD
ATOM      9  O   UNL d   1     -29.463  23.447  21.882  0.00  0.00    -0.266 OA
BRANCH   7  10
ATOM     10  C   UNL d   1     -27.318  22.128  22.741  0.00  0.00     0.076 A 
ATOM     11  C   UNL d   1     -26.677  23.067  23.537  0.00  0.00     0.070 A 
ATOM     12  C   UNL d   1     -25.380  23.451  23.247  0.00  0.00     0.082 A 
ATOM     13  C   UNL d   1     -24.716  22.892  22.152  0.00  0.00     0.011 A 
ATOM     14  C   UNL d   1     -25.365  21.953  21.352  0.00  0.00     0.059 A 
ATOM     15  C   UNL d   1     -26.657  21.570  21.649  0.00  0.00     0.144 A 
ATOM     16  F   UNL d   1     -27.284  20.656  20.876  0.00  0.00    -0.204 F 
BRANCH  12  17
ATOM     17  O   UNL d   1     -24.753  24.372  24.026  0.00  0.00    -0.345 OA
BRANCH  17  18
ATOM     18  C   UNL d   1     -25.140  25.737  23.858  0.00  0.00     0.124 C 
ATOM     19  C   UNL d   1     -25.713  26.271  25.171  0.00  0.00     0.040 C 
BRANCH  18  20
ATOM     20  C   UNL d   1     -23.919  26.567  23.459  0.00  0.00     0.027 C 
ATOM     21  C   UNL d   1     -22.829  26.416  24.523  0.00  0.00     0.007 C 
ENDBRANCH  18  20
ENDBRANCH  17  18
ENDBRANCH  12  17
BRANCH  13  22
ATOM     22  C   UNL d   1     -23.325  23.300  21.838  0.00  0.00    -0.023 A 
ATOM     23  C   UNL d   1     -23.026  23.865  20.599  0.00  0.00     0.015 A 
ATOM     24  C   UNL d   1     -21.730  24.242  20.310  0.00  0.00     0.043 A 
ATOM     25  C   UNL d   1     -20.728  24.061  21.250  0.00  0.00     0.116 A 
ATOM     26  C   UNL d   1     -21.022  23.501  22.482  0.00  0.00     0.043 A 
ATOM     27  F   UNL d   1     -19.462  24.434  20.963  0.00  0.00    -0.206 F 
ATOM     28  C   UNL d   1     -22.314  23.120  22.779  0.00  0.00     0.015 A 
ENDBRANCH  13  22
ENDBRANCH   7  10
ENDBRANCH   1   6
BRANCH   4  29
ATOM     29  O   UNL d   1     -30.562  21.646  25.031  0.00  0.00    -0.364 OA
ATOM     30  H   UNL d   1     -29.626  21.536  24.814  0.00  0.00     0.217 HD
ENDBRANCH   4  29
TORSDOF 7
ENDMDL
