MODEL 1
REMARK VINA RESULT:     -11.6      0.000      0.000
REMARK  3 active torsions:
REMARK  status: ('A' for Active; 'I' for Inactive)
REMARK    1  A    between atoms: C_4  and  C_5 
REMARK    2  A    between atoms: C_13  and  C_14 
REMARK    3  A    between atoms: C_19  and  C_20 
ROOT
ATOM      1  C   UNL d   1     -34.433  21.929  21.606  0.00  0.00     0.048 C 
ATOM      2  C   UNL d   1     -33.048  21.819  22.191  0.00  0.00    -0.059 A 
ATOM      3  C   UNL d   1     -32.859  21.140  23.382  0.00  0.00     0.024 A 
ATOM      4  C   UNL d   1     -31.588  21.030  23.934  0.00  0.00     0.045 A 
ATOM      5  C   UNL d   1     -30.489  21.616  23.271  0.00  0.00     0.100 A 
ATOM      6  N   UNL d   1     -29.173  21.681  23.544  0.00  0.00    -0.227 NA
ATOM      7  C   UNL d   1     -28.556  22.352  22.599  0.00  0.00     0.145 A 
ATOM      8  N   UNL d   1     -29.462  22.759  21.657  0.00  0.00    -0.338 N 
ATOM      9  H   UNL d   1     -29.269  23.272  20.856  0.00  0.00     0.167 HD
ATOM     10  C   UNL d   1     -30.702  22.302  22.062  0.00  0.00     0.064 A 
ATOM     11  C   UNL d   1     -31.981  22.396  21.532  0.00  0.00     0.038 A 
ENDROOT
BRANCH   7  12
ATOM     12  C   UNL d   1     -27.106  22.628  22.561  0.00  0.00     0.093 A 
ATOM     13  C   UNL d   1     -26.289  21.952  21.649  0.00  0.00     0.173 A 
ATOM     14  C   UNL d   1     -24.932  22.212  21.614  0.00  0.00     0.170 A 
ATOM     15  F   UNL d   1     -26.825  21.044  20.804  0.00  0.00    -0.202 F 
ATOM     16  C   UNL d   1     -24.378  23.148  22.487  0.00  0.00     0.058 A 
ATOM     17  F   UNL d   1     -24.143  21.558  20.734  0.00  0.00    -0.202 F 
ATOM     18  C   UNL d   1     -25.192  23.825  23.397  0.00  0.00     0.170 A 
ATOM     19  C   UNL d   1     -26.550  23.571  23.431  0.00  0.00     0.173 A 
ATOM     20  F   UNL d   1     -24.654  24.732  24.242  0.00  0.00    -0.202 F 
ATOM     21  F   UNL d   1     -27.338  24.230  24.308  0.00  0.00    -0.202 F 
BRANCH  16  22
ATOM     22  C   UNL d   1     -22.922  23.427  22.448  0.00  0.00    -0.020 A 
ATOM     23  C   UNL d   1     -22.112  23.072  23.526  0.00  0.00     0.012 A 
ATOM     24  C   UNL d   1     -20.758  23.334  23.485  0.00  0.00     0.001 A 
ATOM     25  C   UNL d   1     -20.203  23.949  22.376  0.00  0.00     0.000 A 
ATOM     26  C   UNL d   1     -21.003  24.304  21.303  0.00  0.00     0.001 A 
ATOM     27  C   UNL d   1     -22.357  24.041  21.331  0.00  0.00     0.012 A 
ENDBRANCH  16  22
ENDBRANCH   7  12
BRANCH   4  28
ATOM     28  C   UNL d   1     -31.389  20.305  25.205  0.00  0.00     0.181 A 
ATOM     29  N   UNL d   1     -30.479  20.603  26.176  0.00  0.00    -0.239 N 
ATOM     30  N   UNL d   1     -30.680  19.634  27.174  0.00  0.00    -0.046 NA
ATOM     31  H   UNL d   1     -29.834  21.326  26.177  0.00  0.00     0.192 HD
ATOM     32  N   UNL d   1     -31.632  18.867  26.768  0.00  0.00    -0.023 NA
ATOM     33  N   UNL d   1     -32.062  19.251  25.621  0.00  0.00    -0.108 NA
ENDBRANCH   4  28
TORSDOF 3
ENDMDL
