MODEL 1
REMARK VINA RESULT:     -11.1      0.000      0.000
REMARK  6 active torsions:
REMARK  status: ('A' for Active; 'I' for Inactive)
REMARK    1  A    between atoms: C_11  and  N_12 
REMARK       I    between atoms: N_12  and  C_13 
REMARK    2  A    between atoms: C_13  and  C_15 
REMARK    3  A    between atoms: C_19  and  N_20 
REMARK    4  A    between atoms: C_31  and  O_32 
REMARK    5  A    between atoms: O_32  and  C_33 
REMARK    6  A    between atoms: C_33  and  C_35 
ROOT
ATOM      1  C   UNL d   1     -24.177  24.642  23.653  0.00  0.00     0.068 A 
ATOM      2  C   UNL d   1     -25.095  25.152  24.577  0.00  0.00     0.064 A 
ATOM      3  C   UNL d   1     -26.340  24.578  24.698  0.00  0.00     0.146 A 
ATOM      4  F   UNL d   1     -27.227  25.074  25.587  0.00  0.00    -0.204 F 
ATOM      5  C   UNL d   1     -26.686  23.481  23.908  0.00  0.00     0.104 A 
ATOM      6  C   UNL d   1     -25.781  22.969  22.989  0.00  0.00     0.073 A 
ATOM      7  C   UNL d   1     -24.529  23.542  22.856  0.00  0.00     0.087 A 
ENDROOT
BRANCH   1   8
ATOM      8  C   UNL d   1     -22.845  25.257  23.516  0.00  0.00     0.259 C 
ATOM      9  N   UNL d   1     -21.772  24.676  24.088  0.00  0.00    -0.322 N 
ATOM     10  H   UNL d   1     -21.865  23.820  24.535  0.00  0.00     0.169 HD
ATOM     11  O   UNL d   1     -22.714  26.290  22.888  0.00  0.00    -0.267 OA
BRANCH   9  12
ATOM     12  C   UNL d   1     -20.524  25.306  24.036  0.00  0.00     0.042 A 
ATOM     13  C   UNL d   1     -19.627  24.987  23.015  0.00  0.00    -0.033 A 
ATOM     14  C   UNL d   1     -20.013  23.965  21.978  0.00  0.00     0.050 C 
ATOM     15  C   UNL d   1     -18.407  25.595  22.942  0.00  0.00     0.041 A 
ATOM     16  C   UNL d   1     -18.037  26.536  23.899  0.00  0.00     0.062 A 
ATOM     17  C   UNL d   1     -18.932  26.862  24.937  0.00  0.00     0.013 A 
ATOM     18  N   UNL d   1     -16.912  27.295  24.097  0.00  0.00    -0.278 N 
ATOM     19  C   UNL d   1     -18.259  27.862  25.760  0.00  0.00     0.152 A 
ATOM     20  C   UNL d   1     -20.182  26.236  24.997  0.00  0.00     0.045 A 
ATOM     21  N   UNL d   1     -17.088  28.085  25.237  0.00  0.00    -0.186 NA
ATOM     22  H   UNL d   1     -16.120  27.285  23.537  0.00  0.00     0.189 HD
ENDBRANCH   9  12
ENDBRANCH   1   8
BRANCH   7  23
ATOM     23  O   UNL d   1     -23.643  23.042  21.957  0.00  0.00    -0.336 OA
BRANCH  23  24
ATOM     24  C   UNL d   1     -23.928  23.264  20.575  0.00  0.00     0.232 C 
ATOM     25  C   UNL d   1     -22.641  23.658  19.846  0.00  0.00     0.049 C 
BRANCH  24  26
ATOM     26  C   UNL d   1     -24.491  21.983  19.957  0.00  0.00     0.413 C 
ATOM     27  F   UNL d   1     -25.876  22.107  19.807  0.00  0.00    -0.168 F 
ATOM     28  F   UNL d   1     -23.904  21.771  18.705  0.00  0.00    -0.168 F 
ATOM     29  F   UNL d   1     -24.208  20.898  20.794  0.00  0.00    -0.168 F 
ENDBRANCH  24  26
ENDBRANCH  23  24
ENDBRANCH   7  23
BRANCH   5  30
ATOM     30  N   UNL d   1     -27.949  22.901  24.040  0.00  0.00    -0.178 N 
ATOM     31  C   UNL d   1     -28.366  22.112  25.054  0.00  0.00     0.351 A 
ATOM     32  N   UNL d   1     -29.647  21.791  24.813  0.00  0.00    -0.284 N 
ATOM     33  O   UNL d   1     -27.702  21.756  26.011  0.00  0.00    -0.244 OA
ATOM     34  C   UNL d   1     -30.016  22.356  23.609  0.00  0.00     0.131 A 
ATOM     35  C   UNL d   1     -30.545  20.997  25.660  0.00  0.00     0.135 C 
ATOM     36  N   UNL d   1     -29.019  23.026  23.141  0.00  0.00    -0.149 NA
ATOM     37  C   UNL d   1     -31.381  22.181  22.984  0.00  0.00     0.081 C 
ATOM     38  C   UNL d   1     -32.346  21.704  24.077  0.00  0.00     0.009 C 
ATOM     39  C   UNL d   1     -31.722  20.511  24.808  0.00  0.00     0.021 C 
ENDBRANCH   5  30
TORSDOF 6
ENDMDL
