MODEL 1
REMARK VINA RESULT:     -10.4      0.000      0.000
REMARK  7 active torsions:
REMARK  status: ('A' for Active; 'I' for Inactive)
REMARK    1  A    between atoms: C_2  and  C_3 
REMARK    2  A    between atoms: C_3  and  O_4 
REMARK    3  A    between atoms: C_5  and  C_8 
REMARK       I    between atoms: C_8  and  N_10 
REMARK    4  A    between atoms: N_10  and  C_11 
REMARK    5  A    between atoms: C_14  and  C_15 
REMARK    6  A    between atoms: C_23  and  C_24 
REMARK    7  A    between atoms: C_24  and  O_26 
ROOT
ATOM      1  C   UNL d   1     -32.234  21.754  22.679  0.00  0.00     0.069 C 
ATOM      2  C   UNL d   1     -31.334  21.867  23.696  0.00  0.00     0.141 C 
ATOM      3  C   UNL d   1     -31.722  21.539  25.035  0.00  0.00     0.107 C 
ATOM      4  N   UNL d   1     -32.031  21.280  26.098  0.00  0.00    -0.191 NA
ENDROOT
BRANCH   2   5
ATOM      5  C   UNL d   1     -29.965  22.324  23.420  0.00  0.00     0.269 C 
ATOM      6  O   UNL d   1     -29.771  23.202  22.600  0.00  0.00    -0.266 OA
ATOM      7  N   UNL d   1     -28.924  21.770  24.073  0.00  0.00    -0.322 N 
ATOM      8  H   UNL d   1     -29.072  21.026  24.676  0.00  0.00     0.169 HD
BRANCH   7   9
ATOM      9  C   UNL d   1     -27.633  22.270  23.882  0.00  0.00     0.036 A 
ATOM     10  C   UNL d   1     -26.923  21.930  22.741  0.00  0.00     0.048 A 
ATOM     11  C   UNL d   1     -25.636  22.433  22.547  0.00  0.00     0.052 A 
ATOM     12  C   UNL d   1     -25.065  23.275  23.519  0.00  0.00    -0.009 A 
ATOM     13  C   UNL d   1     -25.792  23.606  24.659  0.00  0.00     0.015 A 
ATOM     14  C   UNL d   1     -27.065  23.108  24.836  0.00  0.00     0.030 A 
BRANCH  11  15
ATOM     15  C   UNL d   1     -24.878  22.080  21.332  0.00  0.00     0.293 C 
ATOM     16  O   UNL d   1     -24.447  20.953  21.191  0.00  0.00    -0.259 OA
BRANCH  15  17
ATOM     17  O   UNL d   1     -24.664  23.008  20.378  0.00  0.00    -0.322 OA
ATOM     18  C   UNL d   1     -24.290  22.524  19.061  0.00  0.00     0.213 C 
ENDBRANCH  15  17
ENDBRANCH  11  15
BRANCH  12  19
ATOM     19  C   UNL d   1     -23.698  23.811  23.326  0.00  0.00    -0.019 A 
ATOM     20  C   UNL d   1     -23.476  25.187  23.349  0.00  0.00    -0.048 A 
ATOM     21  C   UNL d   1     -22.200  25.681  23.169  0.00  0.00     0.049 A 
ATOM     22  C   UNL d   1     -24.627  26.133  23.573  0.00  0.00     0.049 C 
ATOM     23  C   UNL d   1     -21.140  24.812  22.970  0.00  0.00     0.117 A 
ATOM     24  C   UNL d   1     -21.357  23.443  22.940  0.00  0.00     0.043 A 
ATOM     25  F   UNL d   1     -19.891  25.300  22.799  0.00  0.00    -0.206 F 
ATOM     26  C   UNL d   1     -22.627  22.939  23.120  0.00  0.00     0.016 A 
ENDBRANCH  12  19
ENDBRANCH   7   9
ENDBRANCH   2   5
BRANCH   1  27
ATOM     27  C   UNL d   1     -33.639  21.285  22.962  0.00  0.00     0.061 C 
ATOM     28  C   UNL d   1     -34.071  20.289  21.886  0.00  0.00     0.012 C 
ENDBRANCH   1  27
BRANCH   1  29
ATOM     29  O   UNL d   1     -31.869  22.060  21.422  0.00  0.00    -0.363 OA
ATOM     30  H   UNL d   1     -32.457  22.645  20.924  0.00  0.00     0.217 HD
ENDBRANCH   1  29
TORSDOF 7
ENDMDL
