MODEL 1
REMARK VINA RESULT:      -8.6      0.000      0.000
REMARK  6 active torsions:
REMARK  status: ('A' for Active; 'I' for Inactive)
REMARK    1  A    between atoms: C_2  and  N_3 
REMARK    2  A    between atoms: C_4  and  C_5 
REMARK    3  A    between atoms: C_5  and  O_6 
REMARK    4  A    between atoms: N_8  and  C_9 
REMARK    5  A    between atoms: N_15  and  C_16 
REMARK    6  A    between atoms: C_24  and  C_25 
ROOT
ATOM      1  C   UNL d   1     -28.963  22.004  22.352  0.00  0.00     0.064 A 
ATOM      2  C   UNL d   1     -28.417  21.492  21.174  0.00  0.00     0.033 A 
ATOM      3  C   UNL d   1     -27.111  21.718  20.852  0.00  0.00     0.020 A 
ATOM      4  C   UNL d   1     -26.305  22.469  21.710  0.00  0.00     0.044 A 
ATOM      5  C   UNL d   1     -24.897  22.738  21.411  0.00  0.00     0.263 A 
ATOM      6  O   UNL d   1     -24.393  22.304  20.390  0.00  0.00    -0.267 OA
ATOM      7  N   UNL d   1     -24.162  23.468  22.272  0.00  0.00    -0.288 N 
ATOM      8  C   UNL d   1     -24.680  23.976  23.428  0.00  0.00     0.113 A 
ATOM      9  C   UNL d   1     -25.972  23.778  23.787  0.00  0.00     0.002 A 
ATOM     10  C   UNL d   1     -26.850  22.991  22.907  0.00  0.00    -0.006 A 
ATOM     11  C   UNL d   1     -28.185  22.758  23.218  0.00  0.00     0.045 A 
ENDROOT
BRANCH   1  12
ATOM     12  N   UNL d   1     -30.303  21.761  22.660  0.00  0.00    -0.181 N 
ATOM     13  N   UNL d   1     -30.808  21.333  23.895  0.00  0.00    -0.147 NA
ATOM     14  C   UNL d   1     -32.094  21.225  23.789  0.00  0.00     0.154 A 
ATOM     15  N   UNL d   1     -32.463  21.560  22.509  0.00  0.00    -0.283 N 
ATOM     16  C   UNL d   1     -31.352  21.893  21.821  0.00  0.00     0.351 A 
ATOM     17  O   UNL d   1     -31.305  22.247  20.657  0.00  0.00    -0.244 OA
BRANCH  14  18
ATOM     18  C   UNL d   1     -33.032  20.798  24.888  0.00  0.00     0.244 C 
BRANCH  18  19
ATOM     19  O   UNL d   1     -32.378  20.934  26.152  0.00  0.00    -0.393 OA
ATOM     20  H   UNL d   1     -32.786  20.422  26.863  0.00  0.00     0.209 HD
ENDBRANCH  18  19
ENDBRANCH  14  18
BRANCH  15  21
ATOM     21  C   UNL d   1     -33.830  21.563  21.984  0.00  0.00     0.131 C 
ATOM     22  C   UNL d   1     -34.183  20.165  21.474  0.00  0.00     0.027 C 
ENDBRANCH  15  21
ENDBRANCH   1  12
BRANCH   9  23
ATOM     23  C   UNL d   1     -26.494  24.347  25.053  0.00  0.00    -0.024 A 
ATOM     24  C   UNL d   1     -26.351  25.708  25.318  0.00  0.00     0.012 A 
ATOM     25  C   UNL d   1     -26.841  26.233  26.498  0.00  0.00     0.001 A 
ATOM     26  C   UNL d   1     -27.470  25.411  27.415  0.00  0.00     0.000 A 
ATOM     27  C   UNL d   1     -27.614  24.060  27.157  0.00  0.00     0.001 A 
ATOM     28  C   UNL d   1     -27.134  23.524  25.978  0.00  0.00     0.012 A 
ENDBRANCH   9  23
BRANCH   7  29
ATOM     29  C   UNL d   1     -22.817  23.716  21.970  0.00  0.00     0.045 A 
ATOM     30  C   UNL d   1     -22.483  24.449  20.840  0.00  0.00     0.072 A 
ATOM     31  C   UNL d   1     -21.153  24.697  20.547  0.00  0.00     0.118 A 
ATOM     32  C   UNL d   1     -20.158  24.204  21.375  0.00  0.00     0.042 A 
ATOM     33  F   UNL d   1     -20.825  25.414  19.451  0.00  0.00    -0.206 F 
ATOM     34  C   UNL d   1     -20.491  23.469  22.499  0.00  0.00     0.005 A 
ATOM     35  C   UNL d   1     -21.816  23.224  22.797  0.00  0.00     0.030 A 
ENDBRANCH   7  29
TORSDOF 6
ENDMDL
