MODEL 1
REMARK VINA RESULT:      -8.5      0.000      0.000
REMARK  4 active torsions:
REMARK  status: ('A' for Active; 'I' for Inactive)
REMARK    1  A    between atoms: C_2  and  O_3 
REMARK    2  A    between atoms: C_2  and  C_4 
REMARK    3  A    between atoms: C_9  and  N_10 
REMARK    4  A    between atoms: N_10  and  C_11 
ROOT
ATOM      1  C   UNL d   1     -32.356  21.061  24.160  0.00  0.00     0.083 A 
ATOM      2  C   UNL d   1     -33.466  20.245  23.909  0.00  0.00     0.024 A 
ATOM      3  C   UNL d   1     -34.134  20.395  22.707  0.00  0.00     0.020 A 
ATOM      4  C   UNL d   1     -33.687  21.334  21.792  0.00  0.00     0.119 A 
ATOM      5  N   UNL d   1     -32.643  22.096  22.049  0.00  0.00    -0.242 NA
ATOM      6  C   UNL d   1     -31.967  21.994  23.184  0.00  0.00     0.144 A 
ENDROOT
BRANCH   6   7
ATOM      7  N   UNL d   1     -30.874  22.811  23.409  0.00  0.00    -0.340 N 
ATOM      8  H   UNL d   1     -30.984  23.645  23.893  0.00  0.00     0.167 HD
BRANCH   7   9
ATOM      9  C   UNL d   1     -29.611  22.436  22.939  0.00  0.00     0.033 A 
ATOM     10  C   UNL d   1     -29.435  22.110  21.601  0.00  0.00     0.032 A 
ATOM     11  C   UNL d   1     -28.187  21.740  21.139  0.00  0.00     0.044 A 
ATOM     12  C   UNL d   1     -27.111  21.694  22.010  0.00  0.00     0.116 A 
ATOM     13  C   UNL d   1     -27.284  22.020  23.345  0.00  0.00     0.044 A 
ATOM     14  F   UNL d   1     -25.892  21.333  21.557  0.00  0.00    -0.206 F 
ATOM     15  C   UNL d   1     -28.530  22.394  23.810  0.00  0.00     0.032 A 
ENDBRANCH   7   9
ENDBRANCH   6   7
BRANCH   1  16
ATOM     16  C   UNL d   1     -31.608  20.942  25.424  0.00  0.00     0.180 C 
ATOM     17  O   UNL d   1     -31.655  21.838  26.244  0.00  0.00    -0.646 OA
BRANCH  16  18
ATOM     18  O   UNL d   1     -30.872  19.840  25.671  0.00  0.00    -0.773 OA
ATOM     19  H   UNL d   1     -31.353  19.029  25.882  0.00  0.00     0.167 HD
ENDBRANCH  16  18
ENDBRANCH   1  16
TORSDOF 4
ENDMDL
