MODEL 1
REMARK VINA RESULT:     -10.0      0.000      0.000
REMARK  7 active torsions:
REMARK  status: ('A' for Active; 'I' for Inactive)
REMARK    1  A    between atoms: C_2  and  N_3 
REMARK    2  A    between atoms: N_7  and  C_8 
REMARK    3  A    between atoms: C_10  and  O_11 
REMARK    4  A    between atoms: O_11  and  C_12 
REMARK    5  A    between atoms: C_12  and  C_14 
REMARK    6  A    between atoms: C_18  and  C_19 
REMARK       I    between atoms: C_19  and  N_21 
REMARK    7  A    between atoms: N_21  and  C_22 
ROOT
ATOM      1  C   UNL d   1     -26.721  23.324  23.628  0.00  0.00     0.105 A 
ATOM      2  C   UNL d   1     -25.838  22.838  22.673  0.00  0.00     0.073 A 
ATOM      3  C   UNL d   1     -24.578  23.395  22.548  0.00  0.00     0.087 A 
ATOM      4  C   UNL d   1     -24.194  24.448  23.393  0.00  0.00     0.068 A 
ATOM      5  C   UNL d   1     -25.088  24.928  24.355  0.00  0.00     0.064 A 
ATOM      6  C   UNL d   1     -26.340  24.367  24.471  0.00  0.00     0.146 A 
ATOM      7  F   UNL d   1     -27.203  24.831  25.401  0.00  0.00    -0.204 F 
ENDROOT
BRANCH   4   8
ATOM      8  C   UNL d   1     -22.854  25.046  23.264  0.00  0.00     0.259 C 
ATOM      9  O   UNL d   1     -22.712  26.099  22.672  0.00  0.00    -0.267 OA
ATOM     10  N   UNL d   1     -21.785  24.426  23.802  0.00  0.00    -0.318 N 
ATOM     11  H   UNL d   1     -21.884  23.550  24.203  0.00  0.00     0.169 HD
BRANCH  10  12
ATOM     12  C   UNL d   1     -20.530  25.049  23.780  0.00  0.00     0.113 A 
ATOM     13  C   UNL d   1     -20.177  25.942  24.785  0.00  0.00     0.146 A 
ATOM     14  C   UNL d   1     -18.937  26.554  24.760  0.00  0.00     0.045 A 
ATOM     15  F   UNL d   1     -21.044  26.210  25.786  0.00  0.00    -0.204 F 
ATOM     16  C   UNL d   1     -18.049  26.281  23.736  0.00  0.00     0.006 A 
ATOM     17  C   UNL d   1     -18.396  25.393  22.734  0.00  0.00     0.045 A 
ATOM     18  C   UNL d   1     -19.632  24.772  22.755  0.00  0.00     0.146 A 
ATOM     19  F   UNL d   1     -19.968  23.901  21.779  0.00  0.00    -0.204 F 
ENDBRANCH  10  12
ENDBRANCH   4   8
BRANCH   3  20
ATOM     20  O   UNL d   1     -23.716  22.924  21.613  0.00  0.00    -0.336 OA
BRANCH  20  21
ATOM     21  C   UNL d   1     -23.841  23.452  20.291  0.00  0.00     0.232 C 
ATOM     22  C   UNL d   1     -22.464  23.884  19.781  0.00  0.00     0.049 C 
BRANCH  21  23
ATOM     23  C   UNL d   1     -24.413  22.377  19.365  0.00  0.00     0.413 C 
ATOM     24  F   UNL d   1     -25.678  21.993  19.821  0.00  0.00    -0.168 F 
ATOM     25  F   UNL d   1     -24.523  22.890  18.067  0.00  0.00    -0.168 F 
ATOM     26  F   UNL d   1     -23.562  21.267  19.357  0.00  0.00    -0.168 F 
ENDBRANCH  21  23
ENDBRANCH  20  21
ENDBRANCH   3  20
BRANCH   1  27
ATOM     27  N   UNL d   1     -27.995  22.763  23.748  0.00  0.00    -0.176 N 
ATOM     28  N   UNL d   1     -29.051  22.898  22.834  0.00  0.00    -0.131 NA
ATOM     29  C   UNL d   1     -30.066  22.237  23.292  0.00  0.00     0.226 A 
ATOM     30  N   UNL d   1     -29.716  21.663  24.490  0.00  0.00    -0.271 N 
ATOM     31 CL   UNL d   1     -31.614  22.097  22.519  0.00  0.00    -0.041 Cl
ATOM     32  C   UNL d   1     -28.436  21.989  24.760  0.00  0.00     0.352 A 
ATOM     33  O   UNL d   1     -27.797  21.648  25.738  0.00  0.00    -0.244 OA
BRANCH  30  34
ATOM     34  C   UNL d   1     -30.585  20.833  25.329  0.00  0.00     0.132 C 
ATOM     35  C   UNL d   1     -31.779  21.663  25.805  0.00  0.00     0.027 C 
ENDBRANCH  30  34
ENDBRANCH   1  27
TORSDOF 7
ENDMDL
