MODEL 1
REMARK VINA RESULT:     -11.4      0.000      0.000
REMARK  4 active torsions:
REMARK  status: ('A' for Active; 'I' for Inactive)
REMARK    1  A    between atoms: C_5  and  C_6 
REMARK    2  A    between atoms: C_6  and  O_8 
REMARK    3  A    between atoms: C_10  and  C_11 
REMARK    4  A    between atoms: C_14  and  C_15 
ROOT
ATOM      1  C   UNL d   1     -33.926  21.789  22.219  0.00  0.00     0.091 C 
ATOM      2  C   UNL d   1     -32.477  21.898  22.621  0.00  0.00     0.101 A 
ATOM      3  N   UNL d   1     -32.004  21.595  23.796  0.00  0.00    -0.233 NA
ATOM      4  C   UNL d   1     -30.673  21.806  23.822  0.00  0.00     0.102 A 
ATOM      5  C   UNL d   1     -29.684  21.646  24.817  0.00  0.00     0.069 A 
ATOM      6  C   UNL d   1     -28.360  21.955  24.525  0.00  0.00     0.033 A 
ATOM      7  C   UNL d   1     -28.013  22.429  23.260  0.00  0.00    -0.023 A 
ATOM      8  C   UNL d   1     -28.985  22.589  22.276  0.00  0.00     0.044 A 
ATOM      9  C   UNL d   1     -30.307  22.281  22.550  0.00  0.00     0.064 A 
ATOM     10  N   UNL d   1     -31.475  22.328  21.811  0.00  0.00    -0.343 N 
ATOM     11  H   UNL d   1     -31.562  22.614  20.889  0.00  0.00     0.167 HD
ENDROOT
BRANCH   7  12
ATOM     12  C   UNL d   1     -26.599  22.761  22.961  0.00  0.00    -0.026 A 
ATOM     13  C   UNL d   1     -25.854  21.936  22.117  0.00  0.00     0.013 A 
ATOM     14  C   UNL d   1     -24.541  22.247  21.835  0.00  0.00     0.013 A 
ATOM     15  C   UNL d   1     -23.956  23.379  22.400  0.00  0.00    -0.025 A 
ATOM     16  C   UNL d   1     -24.700  24.202  23.244  0.00  0.00     0.013 A 
ATOM     17  C   UNL d   1     -26.014  23.895  23.522  0.00  0.00     0.013 A 
BRANCH  15  18
ATOM     18  C   UNL d   1     -22.541  23.709  22.100  0.00  0.00    -0.014 A 
ATOM     19  C   UNL d   1     -22.187  24.197  20.843  0.00  0.00    -0.050 A 
ATOM     20  C   UNL d   1     -20.870  24.509  20.573  0.00  0.00     0.007 A 
ATOM     21  C   UNL d   1     -23.240  24.384  19.782  0.00  0.00     0.049 C 
ATOM     22  C   UNL d   1     -19.902  24.337  21.547  0.00  0.00     0.001 A 
ATOM     23  C   UNL d   1     -20.248  23.855  22.796  0.00  0.00     0.007 A 
ATOM     24  C   UNL d   1     -21.561  23.539  23.077  0.00  0.00    -0.050 A 
ATOM     25  C   UNL d   1     -21.937  23.013  24.439  0.00  0.00     0.049 C 
ENDBRANCH  15  18
ENDBRANCH   7  12
BRANCH   5  26
ATOM     26  C   UNL d   1     -30.052  21.151  26.154  0.00  0.00     0.178 C 
ATOM     27  O   UNL d   1     -29.944  21.878  27.122  0.00  0.00    -0.646 OA
BRANCH  26  28
ATOM     28  O   UNL d   1     -30.509  19.891  26.304  0.00  0.00    -0.773 OA
ATOM     29  H   UNL d   1     -29.959  19.283  26.817  0.00  0.00     0.167 HD
ENDBRANCH  26  28
ENDBRANCH   5  26
TORSDOF 4
ENDMDL
