MODEL 1
REMARK VINA RESULT:     -12.2      0.000      0.000
REMARK  7 active torsions:
REMARK  status: ('A' for Active; 'I' for Inactive)
REMARK    1  A    between atoms: C_4  and  N_5 
REMARK       I    between atoms: N_5  and  C_6 
REMARK    2  A    between atoms: C_6  and  C_8 
REMARK    3  A    between atoms: C_9  and  O_10 
REMARK    4  A    between atoms: C_18  and  C_19 
REMARK    5  A    between atoms: C_23  and  O_24 
REMARK    6  A    between atoms: O_24  and  C_25 
REMARK    7  A    between atoms: C_28  and  C_29 
ROOT
ATOM      1  C   UNL d   1     -24.442  21.820  20.356  0.00  0.00     0.051 C 
ATOM      2  C   UNL d   1     -25.148  22.297  21.600  0.00  0.00    -0.026 A 
ATOM      3  C   UNL d   1     -26.354  21.732  21.968  0.00  0.00     0.039 A 
ATOM      4  C   UNL d   1     -27.004  22.171  23.113  0.00  0.00     0.042 A 
ATOM      5  C   UNL d   1     -26.443  23.179  23.887  0.00  0.00    -0.025 A 
ATOM      6  C   UNL d   1     -25.241  23.746  23.514  0.00  0.00     0.047 A 
ATOM      7  C   UNL d   1     -24.588  23.303  22.373  0.00  0.00     0.082 A 
ENDROOT
BRANCH   4   8
ATOM      8  N   UNL d   1     -28.226  21.598  23.488  0.00  0.00    -0.322 N 
ATOM      9  C   UNL d   1     -29.383  22.217  23.179  0.00  0.00     0.263 C 
ATOM     10  O   UNL d   1     -29.369  23.239  22.518  0.00  0.00    -0.267 OA
ATOM     11  H   UNL d   1     -28.240  20.757  23.971  0.00  0.00     0.169 HD
BRANCH   9  12
ATOM     12  C   UNL d   1     -30.655  21.659  23.638  0.00  0.00     0.115 A 
ATOM     13  C   UNL d   1     -31.854  21.579  22.900  0.00  0.00     0.078 A 
ATOM     14  N   UNL d   1     -32.782  20.991  23.710  0.00  0.00    -0.242 N 
ATOM     15  C   UNL d   1     -32.197  21.970  21.600  0.00  0.00     0.033 A 
ATOM     16  N   UNL d   1     -32.171  20.709  24.937  0.00  0.00    -0.141 NA
ATOM     17  C   UNL d   1     -34.049  20.782  23.256  0.00  0.00     0.119 A 
ATOM     18  C   UNL d   1     -30.918  21.093  24.903  0.00  0.00     0.200 A 
ATOM     19  C   UNL d   1     -34.403  21.150  22.004  0.00  0.00     0.019 A 
ATOM     20  C   UNL d   1     -33.469  21.756  21.153  0.00  0.00     0.004 A 
BRANCH  18  21
ATOM     21  O   UNL d   1     -30.024  20.970  25.917  0.00  0.00    -0.343 OA
ATOM     22  H   UNL d   1     -29.712  20.065  26.060  0.00  0.00     0.219 HD
ENDBRANCH  18  21
ENDBRANCH   9  12
ENDBRANCH   4   8
BRANCH   5  23
ATOM     23  C   UNL d   1     -27.149  23.656  25.131  0.00  0.00     0.013 C 
ATOM     24  C   UNL d   1     -26.561  25.000  25.565  0.00  0.00     0.015 C 
ATOM     25  C   UNL d   1     -26.958  22.630  26.250  0.00  0.00     0.015 C 
ENDBRANCH   5  23
BRANCH   7  26
ATOM     26  O   UNL d   1     -23.402  23.860  22.009  0.00  0.00    -0.310 OA
BRANCH  26  27
ATOM     27  C   UNL d   1     -22.790  24.691  22.892  0.00  0.00     0.076 A 
ATOM     28  C   UNL d   1     -21.739  24.227  23.670  0.00  0.00     0.038 A 
ATOM     29  C   UNL d   1     -21.117  25.074  24.566  0.00  0.00     0.019 A 
ATOM     30  C   UNL d   1     -21.543  26.384  24.690  0.00  0.00     0.048 A 
ATOM     31  C   UNL d   1     -22.591  26.850  23.916  0.00  0.00     0.019 A 
ATOM     32  C   UNL d   1     -23.211  26.007  23.014  0.00  0.00     0.038 A 
BRANCH  30  33
ATOM     33  C   UNL d   1     -20.864  27.307  25.668  0.00  0.00     0.417 C 
ATOM     34  F   UNL d   1     -20.812  26.698  26.927  0.00  0.00    -0.166 F 
ATOM     35  F   UNL d   1     -19.564  27.577  25.228  0.00  0.00    -0.166 F 
ATOM     36  F   UNL d   1     -21.584  28.503  25.759  0.00  0.00    -0.166 F 
ENDBRANCH  30  33
ENDBRANCH  26  27
ENDBRANCH   7  26
TORSDOF 7
ENDMDL
