MODEL 1
REMARK VINA RESULT:      -8.7      0.000      0.000
REMARK  7 active torsions:
REMARK  status: ('A' for Active; 'I' for Inactive)
REMARK    1  A    between atoms: O_2  and  C_3 
REMARK    2  A    between atoms: C_7  and  N_8 
REMARK       I    between atoms: N_8  and  C_9 
REMARK    3  A    between atoms: C_9  and  C_11 
REMARK    4  A    between atoms: C_15  and  N_16 
REMARK    5  A    between atoms: C_27  and  O_28 
REMARK    6  A    between atoms: O_28  and  C_29 
REMARK    7  A    between atoms: C_29  and  C_31 
ROOT
ATOM      1  C   UNL d   1     -19.277  25.214  23.203  0.00  0.00     0.068 A 
ATOM      2  C   UNL d   1     -19.722  24.823  21.936  0.00  0.00     0.064 A 
ATOM      3  C   UNL d   1     -20.983  24.295  21.782  0.00  0.00     0.146 A 
ATOM      4  F   UNL d   1     -21.410  23.913  20.559  0.00  0.00    -0.204 F 
ATOM      5  C   UNL d   1     -21.825  24.157  22.887  0.00  0.00     0.104 A 
ATOM      6  C   UNL d   1     -21.393  24.547  24.147  0.00  0.00     0.073 A 
ATOM      7  C   UNL d   1     -20.124  25.074  24.312  0.00  0.00     0.087 A 
ENDROOT
BRANCH   1   8
ATOM      8  C   UNL d   1     -17.926  25.775  23.373  0.00  0.00     0.259 C 
ATOM      9  N   UNL d   1     -17.597  26.934  22.769  0.00  0.00    -0.321 N 
ATOM     10  H   UNL d   1     -18.273  27.441  22.290  0.00  0.00     0.169 HD
ATOM     11  O   UNL d   1     -17.106  25.193  24.057  0.00  0.00    -0.267 OA
BRANCH   9  12
ATOM     12  C   UNL d   1     -16.282  27.407  22.831  0.00  0.00     0.061 A 
ATOM     13  C   UNL d   1     -15.342  26.998  21.895  0.00  0.00     0.146 A 
ATOM     14  N   UNL d   1     -14.102  27.443  21.945  0.00  0.00    -0.268 NA
ATOM     15  C   UNL d   1     -13.700  28.280  22.881  0.00  0.00     0.153 A 
ATOM     16  C   UNL d   1     -14.581  28.736  23.852  0.00  0.00     0.093 A 
ATOM     17  C   UNL d   1     -15.898  28.296  23.832  0.00  0.00     0.001 A 
ATOM     18  C   UNL d   1     -16.888  28.767  24.867  0.00  0.00     0.054 C 
BRANCH  16  19
ATOM     19  O   UNL d   1     -14.160  29.605  24.810  0.00  0.00    -0.354 OA
ATOM     20  C   UNL d   1     -13.805  30.921  24.381  0.00  0.00     0.210 C 
ENDBRANCH  16  19
ENDBRANCH   9  12
ENDBRANCH   1   8
BRANCH   7  21
ATOM     21  O   UNL d   1     -19.702  25.456  25.545  0.00  0.00    -0.345 OA
BRANCH  21  22
ATOM     22  C   UNL d   1     -19.791  26.846  25.860  0.00  0.00     0.129 C 
ATOM     23  C   UNL d   1     -21.230  27.325  25.656  0.00  0.00     0.040 C 
BRANCH  22  24
ATOM     24  C   UNL d   1     -19.381  27.066  27.317  0.00  0.00     0.015 C 
ATOM     25  C   UNL d   1     -20.334  26.299  28.237  0.00  0.00     0.007 C 
ATOM     26  C   UNL d   1     -19.924  26.521  29.695  0.00  0.00     0.000 C 
ATOM     27  C   UNL d   1     -18.496  26.015  29.905  0.00  0.00     0.000 C 
ATOM     28  C   UNL d   1     -17.543  26.782  28.986  0.00  0.00     0.000 C 
ATOM     29  C   UNL d   1     -17.952  26.561  27.528  0.00  0.00     0.007 C 
ENDBRANCH  22  24
ENDBRANCH  21  22
ENDBRANCH   7  21
BRANCH   5  30
ATOM     30  N   UNL d   1     -23.106  23.626  22.724  0.00  0.00    -0.178 N 
ATOM     31  C   UNL d   1     -24.253  24.133  23.226  0.00  0.00     0.351 A 
ATOM     32  N   UNL d   1     -25.256  23.340  22.816  0.00  0.00    -0.284 N 
ATOM     33  O   UNL d   1     -24.358  25.126  23.924  0.00  0.00    -0.244 OA
ATOM     34  C   UNL d   1     -24.717  22.306  22.077  0.00  0.00     0.131 A 
ATOM     35  C   UNL d   1     -26.692  23.516  23.060  0.00  0.00     0.135 C 
ATOM     36  N   UNL d   1     -23.440  22.470  22.001  0.00  0.00    -0.149 NA
ATOM     37  C   UNL d   1     -25.536  21.180  21.488  0.00  0.00     0.081 C 
ATOM     38  C   UNL d   1     -27.002  21.632  21.444  0.00  0.00     0.009 C 
ATOM     39  C   UNL d   1     -27.398  22.177  22.821  0.00  0.00     0.021 C 
ENDBRANCH   5  30
TORSDOF 7
ENDMDL
