MODEL 1
REMARK VINA RESULT:      -9.4      0.000      0.000
REMARK  6 active torsions:
REMARK  status: ('A' for Active; 'I' for Inactive)
REMARK    1  A    between atoms: C_2  and  C_3 
REMARK    2  A    between atoms: C_6  and  N_7 
REMARK    3  A    between atoms: C_9  and  O_10 
REMARK    4  A    between atoms: O_10  and  C_11 
REMARK    5  A    between atoms: C_14  and  O_15 
REMARK    6  A    between atoms: O_15  and  C_16 
ROOT
ATOM      1  N   UNL d   1     -28.269  22.531  22.472  0.00  0.00    -0.059 N 
ATOM      2  N   UNL d   1     -27.719  23.450  23.373  0.00  0.00    -0.124 NA
ATOM      3  C   UNL d   1     -26.415  23.313  23.358  0.00  0.00     0.221 A 
ATOM      4  C   UNL d   1     -26.088  22.302  22.435  0.00  0.00     0.155 A 
ATOM      5  C   UNL d   1     -27.242  21.836  21.904  0.00  0.00     0.089 A 
ATOM      6  C   UNL d   1     -27.370  20.746  20.869  0.00  0.00     0.074 C 
ENDROOT
BRANCH   4   7
ATOM      7  O   UNL d   1     -24.833  21.870  22.132  0.00  0.00    -0.298 OA
BRANCH   7   8
ATOM      8  C   UNL d   1     -23.981  22.748  21.539  0.00  0.00     0.153 A 
ATOM      9  C   UNL d   1     -22.947  23.317  22.272  0.00  0.00     0.153 A 
ATOM     10  C   UNL d   1     -22.082  24.211  21.665  0.00  0.00     0.045 A 
ATOM     11  F   UNL d   1     -22.785  22.998  23.574  0.00  0.00    -0.203 F 
ATOM     12  C   UNL d   1     -22.245  24.537  20.332  0.00  0.00     0.006 A 
ATOM     13  C   UNL d   1     -23.274  23.974  19.601  0.00  0.00     0.045 A 
ATOM     14  C   UNL d   1     -24.139  23.075  20.199  0.00  0.00     0.153 A 
ATOM     15  F   UNL d   1     -25.141  22.520  19.481  0.00  0.00    -0.203 F 
ENDBRANCH   7   8
ENDBRANCH   4   7
BRANCH   3  16
ATOM     16  O   UNL d   1     -25.531  24.028  24.104  0.00  0.00    -0.326 OA
BRANCH  16  17
ATOM     17  C   UNL d   1     -25.682  25.449  24.105  0.00  0.00     0.122 C 
ATOM     18  C   UNL d   1     -26.238  25.901  25.457  0.00  0.00     0.040 C 
ATOM     19  C   UNL d   1     -24.322  26.108  23.868  0.00  0.00     0.040 C 
ENDBRANCH  16  17
ENDBRANCH   3  16
BRANCH   1  20
ATOM     20  C   UNL d   1     -29.625  22.360  22.200  0.00  0.00     0.749 A 
ATOM     21  N   UNL d   1     -30.466  22.180  23.206  0.00  0.00    -0.073 NA
ATOM     22  C   UNL d   1     -31.760  22.021  22.984  0.00  0.00     0.145 A 
ATOM     23  C   UNL d   1     -32.229  22.032  21.679  0.00  0.00    -0.022 A 
ATOM     24  C   UNL d   1     -31.319  22.223  20.651  0.00  0.00     0.145 A 
ATOM     25  N   UNL d   1     -30.039  22.381  20.943  0.00  0.00    -0.073 NA
BRANCH  23  26
ATOM     26  C   UNL d   1     -33.696  21.848  21.385  0.00  0.00     0.037 C 
ATOM     27  C   UNL d   1     -34.117  20.427  21.766  0.00  0.00     0.010 C 
ENDBRANCH  23  26
ENDBRANCH   1  20
TORSDOF 6
ENDMDL
