MODEL 1
REMARK VINA RESULT:      -9.1      0.000      0.000
REMARK  5 active torsions:
REMARK  status: ('A' for Active; 'I' for Inactive)
REMARK    1  A    between atoms: C_5  and  C_6 
REMARK    2  A    between atoms: C_6  and  C_7 
REMARK    3  A    between atoms: C_7  and  C_8 
REMARK    4  A    between atoms: CA_9  and  C_10 
REMARK    5  A    between atoms: C_10  and  OXT_12 
ROOT
ATOM      1  C   UNL d   1     -31.093  21.419  24.560  0.00  0.00     0.044 A 
ATOM      2  CA  UNL d   1     -32.248  20.756  24.293  0.00  0.00     0.122 A 
ATOM      3  N   UNL d   1     -32.571  19.636  25.031  0.00  0.00    -0.302 N 
ATOM      4  H   UNL d   1     -33.395  19.163  24.840  0.00  0.00     0.171 HD
ATOM      5  C   UNL d   1     -31.764  19.189  26.006  0.00  0.00     0.327 A 
ATOM      6  O   UNL d   1     -32.084  18.198  26.632  0.00  0.00    -0.247 OA
ATOM      7  N   UNL d   1     -30.609  19.809  26.310  0.00  0.00    -0.275 N 
ATOM      8  H   UNL d   1     -30.048  19.461  27.021  0.00  0.00     0.173 HD
ATOM      9  C   UNL d   1     -30.224  20.907  25.628  0.00  0.00     0.258 A 
ATOM     10  O   UNL d   1     -29.177  21.467  25.897  0.00  0.00    -0.267 OA
ENDROOT
BRANCH   1  11
ATOM     11  C   UNL d   1     -30.708  22.646  23.774  0.00  0.00     0.051 C 
BRANCH  11  12
ATOM     12  C   UNL d   1     -30.334  22.240  22.347  0.00  0.00     0.043 C 
BRANCH  12  13
ATOM     13  C   UNL d   1     -28.834  22.167  22.222  0.00  0.00    -0.058 A 
ATOM     14  C   UNL d   1     -28.261  21.488  21.163  0.00  0.00     0.007 A 
ATOM     15  C   UNL d   1     -26.885  21.421  21.049  0.00  0.00     0.007 A 
ATOM     16  C   UNL d   1     -26.082  22.027  21.997  0.00  0.00    -0.062 A 
ATOM     17  C   UNL d   1     -24.582  21.948  21.876  0.00  0.00     0.048 C 
ATOM     18  C   UNL d   1     -26.655  22.711  23.053  0.00  0.00     0.007 A 
ATOM     19  C   UNL d   1     -28.032  22.778  23.167  0.00  0.00     0.007 A 
ENDBRANCH  12  13
ENDBRANCH  11  12
ENDBRANCH   1  11
BRANCH   2  20
ATOM     20  C   UNL d   1     -33.153  21.232  23.221  0.00  0.00     0.194 C 
ATOM     21  O   UNL d   1     -33.373  20.530  22.255  0.00  0.00    -0.645 OA
BRANCH  20  22
ATOM     22  OXT UNL d   1     -33.734  22.444  23.318  0.00  0.00    -0.772 OA
ATOM     23  HXT UNL d   1     -33.157  23.215  23.236  0.00  0.00     0.167 HD
ENDBRANCH  20  22
ENDBRANCH   2  20
TORSDOF 5
ENDMDL
