MODEL 1
REMARK VINA RESULT:      -7.3      0.000      0.000
REMARK  9 active torsions:
REMARK  status: ('A' for Active; 'I' for Inactive)
REMARK    1  A    between atoms: C_2  and  C_3 
REMARK    2  A    between atoms: N_5  and  C_6 
REMARK    3  A    between atoms: C_8  and  O_9 
REMARK    4  A    between atoms: O_9  and  C_10 
REMARK    5  A    between atoms: C_10  and  C_12 
REMARK    6  A    between atoms: C_18  and  C_19 
REMARK       I    between atoms: C_19  and  N_21 
REMARK    7  A    between atoms: N_21  and  C_22 
REMARK    8  A    between atoms: C_25  and  S_26 
REMARK    9  A    between atoms: S_26  and  N_28 
ROOT
ATOM      1  C   UNL d   1     -22.748  24.604  23.159  0.00  0.00     0.104 A 
ATOM      2  C   UNL d   1     -21.483  24.232  23.594  0.00  0.00     0.073 A 
ATOM      3  C   UNL d   1     -20.816  25.007  24.526  0.00  0.00     0.087 A 
ATOM      4  C   UNL d   1     -21.415  26.174  25.021  0.00  0.00     0.068 A 
ATOM      5  C   UNL d   1     -22.688  26.546  24.573  0.00  0.00     0.064 A 
ATOM      6  C   UNL d   1     -23.347  25.765  23.650  0.00  0.00     0.146 A 
ATOM      7  F   UNL d   1     -24.575  26.124  23.217  0.00  0.00    -0.204 F 
ENDROOT
BRANCH   4   8
ATOM      8  C   UNL d   1     -20.708  27.007  26.009  0.00  0.00     0.259 C 
ATOM      9  O   UNL d   1     -20.421  28.158  25.740  0.00  0.00    -0.267 OA
ATOM     10  N   UNL d   1     -20.378  26.494  27.211  0.00  0.00    -0.323 N 
ATOM     11  H   UNL d   1     -20.552  25.558  27.403  0.00  0.00     0.169 HD
BRANCH  10  12
ATOM     12  C   UNL d   1     -19.786  27.309  28.181  0.00  0.00     0.035 A 
ATOM     13  C   UNL d   1     -20.581  28.040  29.054  0.00  0.00     0.031 A 
ATOM     14  C   UNL d   1     -19.992  28.845  30.011  0.00  0.00     0.024 A 
ATOM     15  C   UNL d   1     -18.614  28.921  30.100  0.00  0.00     0.039 A 
ATOM     16  C   UNL d   1     -17.821  28.194  29.232  0.00  0.00     0.024 A 
ATOM     17  C   UNL d   1     -18.402  27.384  28.276  0.00  0.00     0.031 A 
BRANCH  15  18
ATOM     18  S   UNL d   1     -17.868  29.948  31.323  0.00  0.00     0.066 S 
ATOM     19  C   UNL d   1     -16.697  28.942  32.275  0.00  0.00     0.143 C 
ATOM     20  O   UNL d   1     -17.291  31.071  30.671  0.00  0.00    -0.244 OA
BRANCH  18  21
ATOM     21  N   UNL d   1     -18.931  30.437  32.251  0.00  0.00    -0.249 NA
ATOM     22  H   UNL d   1     -18.939  31.366  32.532  0.00  0.00     0.197 HD
ENDBRANCH  18  21
ENDBRANCH  15  18
ENDBRANCH  10  12
ENDBRANCH   4   8
BRANCH   3  23
ATOM     23  O   UNL d   1     -19.582  24.641  24.956  0.00  0.00    -0.345 OA
BRANCH  23  24
ATOM     24  C   UNL d   1     -18.469  25.064  24.168  0.00  0.00     0.129 C 
ATOM     25  C   UNL d   1     -18.975  25.757  22.901  0.00  0.00     0.040 C 
BRANCH  24  26
ATOM     26  C   UNL d   1     -17.613  26.042  24.976  0.00  0.00     0.015 C 
ATOM     27  C   UNL d   1     -16.281  25.379  25.331  0.00  0.00     0.007 C 
ATOM     28  C   UNL d   1     -15.424  26.356  26.140  0.00  0.00     0.000 C 
ATOM     29  C   UNL d   1     -15.163  27.614  25.308  0.00  0.00     0.000 C 
ATOM     30  C   UNL d   1     -16.495  28.277  24.953  0.00  0.00     0.000 C 
ATOM     31  C   UNL d   1     -17.352  27.300  24.144  0.00  0.00     0.007 C 
ENDBRANCH  24  26
ENDBRANCH  23  24
ENDBRANCH   3  23
BRANCH   1  32
ATOM     32  N   UNL d   1     -23.422  23.817  22.222  0.00  0.00    -0.178 N 
ATOM     33  N   UNL d   1     -24.295  22.757  22.503  0.00  0.00    -0.149 NA
ATOM     34  C   UNL d   1     -24.719  22.277  21.377  0.00  0.00     0.130 A 
ATOM     35  N   UNL d   1     -24.152  22.989  20.349  0.00  0.00    -0.289 N 
ATOM     36  C   UNL d   1     -23.357  23.940  20.881  0.00  0.00     0.351 A 
ATOM     37  C   UNL d   1     -24.375  22.757  18.921  0.00  0.00     0.162 C 
ATOM     38  O   UNL d   1     -22.700  24.757  20.261  0.00  0.00    -0.244 OA
BRANCH  34  39
ATOM     39  C   UNL d   1     -25.678  21.125  21.222  0.00  0.00     0.076 C 
ATOM     40  C   UNL d   1     -27.115  21.632  21.372  0.00  0.00     0.013 C 
ENDBRANCH  34  39
ENDBRANCH   1  32
TORSDOF 9
ENDMDL
