MODEL 1
REMARK VINA RESULT:     -11.3      0.000      0.000
REMARK  6 active torsions:
REMARK  status: ('A' for Active; 'I' for Inactive)
REMARK    1  A    between atoms: C_9  and  N_10 
REMARK       I    between atoms: N_10  and  C_11 
REMARK    2  A    between atoms: C_11  and  C_13 
REMARK    3  A    between atoms: C_17  and  N_18 
REMARK    4  A    between atoms: C_29  and  O_30 
REMARK    5  A    between atoms: O_30  and  C_31 
REMARK    6  A    between atoms: C_31  and  C_33 
ROOT
ATOM      1  C   UNL d   1     -24.171  24.634  23.602  0.00  0.00     0.068 A 
ATOM      2  C   UNL d   1     -25.078  25.158  24.530  0.00  0.00     0.064 A 
ATOM      3  C   UNL d   1     -26.322  24.586  24.675  0.00  0.00     0.146 A 
ATOM      4  F   UNL d   1     -27.196  25.092  25.572  0.00  0.00    -0.204 F 
ATOM      5  C   UNL d   1     -26.681  23.484  23.900  0.00  0.00     0.104 A 
ATOM      6  C   UNL d   1     -25.785  22.955  22.980  0.00  0.00     0.073 A 
ATOM      7  C   UNL d   1     -24.534  23.526  22.823  0.00  0.00     0.087 A 
ENDROOT
BRANCH   1   8
ATOM      8  C   UNL d   1     -22.839  25.244  23.444  0.00  0.00     0.259 C 
ATOM      9  N   UNL d   1     -21.773  24.703  24.066  0.00  0.00    -0.322 N 
ATOM     10  H   UNL d   1     -21.865  23.868  24.549  0.00  0.00     0.169 HD
ATOM     11  O   UNL d   1     -22.703  26.236  22.754  0.00  0.00    -0.267 OA
BRANCH   9  12
ATOM     12  C   UNL d   1     -20.532  25.348  24.012  0.00  0.00     0.047 A 
ATOM     13  C   UNL d   1     -19.618  25.019  23.020  0.00  0.00    -0.032 A 
ATOM     14  C   UNL d   1     -19.963  23.967  21.997  0.00  0.00     0.050 C 
ATOM     15  C   UNL d   1     -18.397  25.660  22.966  0.00  0.00     0.051 A 
ATOM     16  C   UNL d   1     -18.077  26.623  23.909  0.00  0.00     0.117 A 
ATOM     17  F   UNL d   1     -16.879  27.245  23.857  0.00  0.00    -0.206 F 
ATOM     18  C   UNL d   1     -18.984  26.949  24.903  0.00  0.00     0.051 A 
ATOM     19  C   UNL d   1     -20.209  26.314  24.957  0.00  0.00    -0.032 A 
ATOM     20  C   UNL d   1     -21.196  26.670  26.039  0.00  0.00     0.050 C 
ENDBRANCH   9  12
ENDBRANCH   1   8
BRANCH   7  21
ATOM     21  O   UNL d   1     -23.660  23.013  21.920  0.00  0.00    -0.336 OA
BRANCH  21  22
ATOM     22  C   UNL d   1     -23.925  23.275  20.540  0.00  0.00     0.232 C 
ATOM     23  C   UNL d   1     -22.623  23.660  19.835  0.00  0.00     0.049 C 
BRANCH  22  24
ATOM     24  C   UNL d   1     -24.507  22.021  19.886  0.00  0.00     0.413 C 
ATOM     25  F   UNL d   1     -25.898  22.145  19.795  0.00  0.00    -0.168 F 
ATOM     26  F   UNL d   1     -23.968  21.870  18.605  0.00  0.00    -0.168 F 
ATOM     27  F   UNL d   1     -24.189  20.900  20.662  0.00  0.00    -0.168 F 
ENDBRANCH  22  24
ENDBRANCH  21  22
ENDBRANCH   7  21
BRANCH   5  28
ATOM     28  N   UNL d   1     -27.943  22.907  24.052  0.00  0.00    -0.178 N 
ATOM     29  C   UNL d   1     -28.345  22.120  25.073  0.00  0.00     0.351 A 
ATOM     30  N   UNL d   1     -29.632  21.803  24.853  0.00  0.00    -0.284 N 
ATOM     31  O   UNL d   1     -27.667  21.763  26.019  0.00  0.00    -0.244 OA
ATOM     32  C   UNL d   1     -30.020  22.371  23.656  0.00  0.00     0.131 A 
ATOM     33  C   UNL d   1     -30.518  21.014  25.716  0.00  0.00     0.135 C 
ATOM     34  N   UNL d   1     -29.028  23.037  23.171  0.00  0.00    -0.149 NA
ATOM     35  C   UNL d   1     -31.395  22.201  23.054  0.00  0.00     0.081 C 
ATOM     36  C   UNL d   1     -32.344  21.727  24.163  0.00  0.00     0.009 C 
ATOM     37  C   UNL d   1     -31.712  20.532  24.884  0.00  0.00     0.021 C 
ENDBRANCH   5  28
TORSDOF 6
ENDMDL
