MODEL 1
REMARK VINA RESULT:      -9.6      0.000      0.000
REMARK  9 active torsions:
REMARK  status: ('A' for Active; 'I' for Inactive)
REMARK    1  A    between atoms: C_2  and  N_3 
REMARK    2  A    between atoms: C_4  and  C_5 
REMARK    3  A    between atoms: C_5  and  O_6 
REMARK    4  A    between atoms: N_8  and  C_9 
REMARK    5  A    between atoms: C_11  and  O_12 
REMARK    6  A    between atoms: O_12  and  C_13 
REMARK    7  A    between atoms: C_13  and  C_15 
REMARK    8  A    between atoms: C_20  and  O_21 
REMARK    9  A    between atoms: O_21  and  C_22 
ROOT
ATOM      1  C   UNL d   1     -24.513  23.478  22.752  0.00  0.00     0.198 A 
ATOM      2  N   UNL d   1     -25.389  23.738  23.719  0.00  0.00    -0.201 NA
ATOM      3  C   UNL d   1     -26.628  23.287  23.698  0.00  0.00     0.183 A 
ATOM      4  C   UNL d   1     -27.069  22.496  22.622  0.00  0.00     0.084 A 
ATOM      5  C   UNL d   1     -28.376  21.984  22.541  0.00  0.00     0.185 A 
ATOM      6  N   UNL d   1     -28.727  21.253  21.500  0.00  0.00    -0.236 NA
ATOM      7  C   UNL d   1     -27.892  20.964  20.510  0.00  0.00     0.120 A 
ATOM      8  C   UNL d   1     -26.605  21.408  20.502  0.00  0.00     0.035 A 
ATOM      9  C   UNL d   1     -26.155  22.194  21.576  0.00  0.00     0.027 A 
ATOM     10  C   UNL d   1     -24.849  22.699  21.661  0.00  0.00     0.175 A 
ATOM     11  F   UNL d   1     -23.946  22.445  20.689  0.00  0.00    -0.201 F 
ENDROOT
BRANCH   1  12
ATOM     12  N   UNL d   1     -23.218  23.993  22.848  0.00  0.00    -0.159 N 
ATOM     13  N   UNL d   1     -22.051  23.408  22.337  0.00  0.00    -0.145 NA
ATOM     14  C   UNL d   1     -21.054  24.184  22.622  0.00  0.00     0.154 A 
ATOM     15  N   UNL d   1     -21.522  25.269  23.321  0.00  0.00    -0.283 N 
ATOM     16  C   UNL d   1     -22.858  25.143  23.456  0.00  0.00     0.352 A 
ATOM     17  O   UNL d   1     -23.603  25.924  24.019  0.00  0.00    -0.244 OA
BRANCH  14  18
ATOM     18  C   UNL d   1     -19.615  23.931  22.254  0.00  0.00     0.244 C 
BRANCH  18  19
ATOM     19  O   UNL d   1     -19.380  24.374  20.916  0.00  0.00    -0.393 OA
ATOM     20  H   UNL d   1     -20.058  24.099  20.286  0.00  0.00     0.209 HD
ENDBRANCH  18  19
ENDBRANCH  14  18
BRANCH  15  21
ATOM     21  C   UNL d   1     -20.710  26.375  23.832  0.00  0.00     0.131 C 
ATOM     22  C   UNL d   1     -20.323  26.094  25.285  0.00  0.00     0.027 C 
ENDBRANCH  15  21
ENDBRANCH   1  12
BRANCH   3  23
ATOM     23  O   UNL d   1     -27.476  23.585  24.712  0.00  0.00    -0.319 OA
BRANCH  23  24
ATOM     24  C   UNL d   1     -26.952  23.512  26.039  0.00  0.00     0.234 C 
ATOM     25  C   UNL d   1     -27.383  24.752  26.826  0.00  0.00     0.049 C 
BRANCH  24  26
ATOM     26  C   UNL d   1     -27.488  22.257  26.731  0.00  0.00     0.413 C 
ATOM     27  F   UNL d   1     -26.476  21.687  27.511  0.00  0.00    -0.168 F 
ATOM     28  F   UNL d   1     -28.570  22.600  27.549  0.00  0.00    -0.168 F 
ATOM     29  F   UNL d   1     -27.906  21.336  25.766  0.00  0.00    -0.168 F 
ENDBRANCH  24  26
ENDBRANCH  23  24
ENDBRANCH   3  23
BRANCH   5  30
ATOM     30  O   UNL d   1     -29.272  22.247  23.522  0.00  0.00    -0.286 OA
BRANCH  30  31
ATOM     31  C   UNL d   1     -30.583  21.981  23.277  0.00  0.00     0.138 A 
ATOM     32  C   UNL d   1     -31.348  21.324  24.229  0.00  0.00     0.071 A 
ATOM     33  C   UNL d   1     -32.681  21.055  23.979  0.00  0.00     0.027 A 
ATOM     34 CL   UNL d   1     -30.633  20.838  25.734  0.00  0.00    -0.081 Cl
ATOM     35  C   UNL d   1     -33.252  21.442  22.779  0.00  0.00     0.005 A 
ATOM     36  C   UNL d   1     -32.492  22.097  21.829  0.00  0.00     0.045 A 
ATOM     37  C   UNL d   1     -31.160  22.373  22.075  0.00  0.00     0.151 A 
ATOM     38  F   UNL d   1     -30.419  23.018  21.148  0.00  0.00    -0.203 F 
ENDBRANCH  30  31
ENDBRANCH   5  30
TORSDOF 9
ENDMDL
