MODEL 1
REMARK VINA RESULT:     -10.1      0.000      0.000
REMARK  6 active torsions:
REMARK  status: ('A' for Active; 'I' for Inactive)
REMARK    1  A    between atoms: C_2  and  O_3 
REMARK    2  A    between atoms: C_2  and  C_32 
REMARK    3  A    between atoms: O_3  and  C_4 
REMARK    4  A    between atoms: C_6  and  N_7 
REMARK    5  A    between atoms: C_20  and  C_21 
REMARK       I    between atoms: C_21  and  N_23 
REMARK    6  A    between atoms: N_23  and  C_24 
ROOT
ATOM      1  C   UNL d   1     -24.553  23.343  22.614  0.00  0.00     0.087 A 
ATOM      2  C   UNL d   1     -25.813  22.809  22.822  0.00  0.00     0.071 A 
ATOM      3  C   UNL d   1     -26.624  23.316  23.828  0.00  0.00     0.088 A 
ATOM      4  C   UNL d   1     -26.177  24.366  24.629  0.00  0.00     0.064 A 
ATOM      5 CL   UNL d   1     -27.198  24.992  25.885  0.00  0.00    -0.082 Cl
ATOM      6  C   UNL d   1     -24.927  24.906  24.428  0.00  0.00     0.046 A 
ATOM      7  C   UNL d   1     -24.103  24.402  23.416  0.00  0.00     0.067 A 
ENDROOT
BRANCH   7   8
ATOM      8  C   UNL d   1     -22.766  24.978  23.197  0.00  0.00     0.259 C 
ATOM      9  O   UNL d   1     -22.645  26.014  22.571  0.00  0.00    -0.267 OA
ATOM     10  N   UNL d   1     -21.676  24.360  23.693  0.00  0.00    -0.318 N 
ATOM     11  H   UNL d   1     -21.763  23.493  24.120  0.00  0.00     0.169 HD
BRANCH  10  12
ATOM     12  C   UNL d   1     -20.418  24.968  23.593  0.00  0.00     0.113 A 
ATOM     13  C   UNL d   1     -20.021  25.910  24.534  0.00  0.00     0.146 A 
ATOM     14  C   UNL d   1     -18.778  26.507  24.431  0.00  0.00     0.045 A 
ATOM     15  F   UNL d   1     -20.849  26.240  25.549  0.00  0.00    -0.204 F 
ATOM     16  C   UNL d   1     -17.930  26.169  23.393  0.00  0.00     0.006 A 
ATOM     17  C   UNL d   1     -18.321  25.232  22.453  0.00  0.00     0.045 A 
ATOM     18  C   UNL d   1     -19.560  24.626  22.553  0.00  0.00     0.146 A 
ATOM     19  F   UNL d   1     -19.939  23.707  21.638  0.00  0.00    -0.204 F 
ENDBRANCH  10  12
ENDBRANCH   7   8
BRANCH   1  20
ATOM     20  O   UNL d   1     -23.757  22.846  21.633  0.00  0.00    -0.336 OA
BRANCH  20  21
ATOM     21  C   UNL d   1     -23.917  23.398  20.326  0.00  0.00     0.232 C 
ATOM     22  C   UNL d   1     -22.556  23.853  19.795  0.00  0.00     0.049 C 
BRANCH  21  23
ATOM     23  C   UNL d   1     -24.500  22.337  19.391  0.00  0.00     0.413 C 
ATOM     24  F   UNL d   1     -23.660  21.220  19.373  0.00  0.00    -0.168 F 
ATOM     25  F   UNL d   1     -25.768  21.960  19.847  0.00  0.00    -0.168 F 
ATOM     26  F   UNL d   1     -24.606  22.862  18.098  0.00  0.00    -0.168 F 
ENDBRANCH  21  23
ENDBRANCH  20  21
ENDBRANCH   1  20
BRANCH   3  27
ATOM     27  N   UNL d   1     -27.893  22.772  24.040  0.00  0.00    -0.179 N 
ATOM     28  C   UNL d   1     -28.277  22.024  25.098  0.00  0.00     0.351 A 
ATOM     29  N   UNL d   1     -29.576  21.727  24.927  0.00  0.00    -0.284 N 
ATOM     30  O   UNL d   1     -27.576  21.683  26.033  0.00  0.00    -0.244 OA
ATOM     31  C   UNL d   1     -29.991  22.269  23.728  0.00  0.00     0.131 A 
ATOM     32  C   UNL d   1     -30.450  20.983  25.842  0.00  0.00     0.135 C 
ATOM     33  N   UNL d   1     -29.006  22.905  23.196  0.00  0.00    -0.149 NA
ATOM     34  C   UNL d   1     -31.386  22.098  23.169  0.00  0.00     0.081 C 
ATOM     35  C   UNL d   1     -32.309  21.674  24.319  0.00  0.00     0.009 C 
ATOM     36  C   UNL d   1     -31.674  20.494  25.061  0.00  0.00     0.021 C 
ENDBRANCH   3  27
TORSDOF 6
ENDMDL
