MODEL 1
REMARK VINA RESULT:     -10.0      0.000      0.000
REMARK  6 active torsions:
REMARK  status: ('A' for Active; 'I' for Inactive)
REMARK    1  A    between atoms: C_2  and  C_3 
REMARK    2  A    between atoms: N_5  and  C_6 
REMARK    3  A    between atoms: C_18  and  N_19 
REMARK    4  A    between atoms: C_21  and  C_22 
REMARK    5  A    between atoms: C_22  and  O_23 
REMARK    6  A    between atoms: N_24  and  C_25 
ROOT
ATOM      1  C   UNL d   1     -25.758  24.056  23.772  0.00  0.00     0.066 A 
ATOM      2  N   UNL d   1     -24.545  24.251  23.350  0.00  0.00    -0.168 NA
ATOM      3  N   UNL d   1     -24.028  23.614  22.222  0.00  0.00    -0.196 N 
ATOM      4  C   UNL d   1     -24.765  22.749  21.494  0.00  0.00     0.279 A 
ATOM      5  O   UNL d   1     -24.292  22.205  20.512  0.00  0.00    -0.265 OA
ATOM      6  C   UNL d   1     -26.145  22.476  21.906  0.00  0.00     0.046 A 
ATOM      7  C   UNL d   1     -26.965  21.593  21.201  0.00  0.00     0.020 A 
ATOM      8  C   UNL d   1     -28.243  21.371  21.625  0.00  0.00     0.033 A 
ATOM      9  C   UNL d   1     -28.744  22.018  22.757  0.00  0.00     0.064 A 
ATOM     10  C   UNL d   1     -27.951  22.898  23.473  0.00  0.00     0.046 A 
ATOM     11  C   UNL d   1     -26.643  23.136  23.055  0.00  0.00     0.008 A 
ENDROOT
BRANCH   9  12
ATOM     12  N   UNL d   1     -30.056  21.774  23.170  0.00  0.00    -0.181 N 
ATOM     13  C   UNL d   1     -31.176  21.999  22.451  0.00  0.00     0.351 A 
ATOM     14  N   UNL d   1     -32.225  21.627  23.211  0.00  0.00    -0.283 N 
ATOM     15  O   UNL d   1     -31.229  22.453  21.322  0.00  0.00    -0.244 OA
ATOM     16  C   UNL d   1     -31.745  21.174  24.416  0.00  0.00     0.154 A 
ATOM     17  N   UNL d   1     -30.454  21.256  24.410  0.00  0.00    -0.147 NA
BRANCH  14  18
ATOM     18  C   UNL d   1     -33.635  21.698  22.822  0.00  0.00     0.131 C 
ATOM     19  C   UNL d   1     -34.015  20.434  22.048  0.00  0.00     0.027 C 
ENDBRANCH  14  18
BRANCH  16  20
ATOM     20  C   UNL d   1     -32.587  20.668  25.560  0.00  0.00     0.244 C 
BRANCH  20  21
ATOM     21  O   UNL d   1     -31.759  19.950  26.478  0.00  0.00    -0.393 OA
ATOM     22  H   UNL d   1     -31.132  19.349  26.055  0.00  0.00     0.209 HD
ENDBRANCH  20  21
ENDBRANCH  16  20
ENDBRANCH   9  12
BRANCH   1  23
ATOM     23  C   UNL d   1     -26.255  24.776  24.999  0.00  0.00     0.057 C 
ATOM     24  C   UNL d   1     -25.988  26.275  24.853  0.00  0.00     0.011 C 
ENDBRANCH   1  23
BRANCH   3  25
ATOM     25  C   UNL d   1     -22.711  23.879  21.833  0.00  0.00     0.068 A 
ATOM     26  C   UNL d   1     -21.652  23.462  22.630  0.00  0.00    -0.033 A 
ATOM     27  C   UNL d   1     -20.353  23.719  22.240  0.00  0.00     0.009 A 
ATOM     28  C   UNL d   1     -21.922  22.726  23.917  0.00  0.00     0.050 C 
ATOM     29  C   UNL d   1     -20.105  24.401  21.063  0.00  0.00     0.001 A 
ATOM     30  C   UNL d   1     -21.157  24.822  20.269  0.00  0.00     0.002 A 
ATOM     31  C   UNL d   1     -22.458  24.562  20.651  0.00  0.00     0.032 A 
ENDBRANCH   3  25
TORSDOF 6
ENDMDL
