MODEL 1
REMARK VINA RESULT:      -9.2      0.000      0.000
REMARK  6 active torsions:
REMARK  status: ('A' for Active; 'I' for Inactive)
REMARK    1  A    between atoms: C_7  and  N_8 
REMARK       I    between atoms: N_8  and  C_9 
REMARK    2  A    between atoms: C_9  and  C_11 
REMARK    3  A    between atoms: C_15  and  N_16 
REMARK    4  A    between atoms: C_27  and  O_28 
REMARK    5  A    between atoms: O_28  and  C_29 
REMARK    6  A    between atoms: C_29  and  C_31 
ROOT
ATOM      1  C   UNL d   1     -19.519  24.989  22.693  0.00  0.00     0.068 A 
ATOM      2  C   UNL d   1     -20.122  24.680  21.468  0.00  0.00     0.064 A 
ATOM      3  C   UNL d   1     -21.409  24.193  21.438  0.00  0.00     0.146 A 
ATOM      4  F   UNL d   1     -21.992  23.901  20.255  0.00  0.00    -0.204 F 
ATOM      5  C   UNL d   1     -22.113  24.000  22.626  0.00  0.00     0.104 A 
ATOM      6  C   UNL d   1     -21.520  24.297  23.846  0.00  0.00     0.073 A 
ATOM      7  C   UNL d   1     -20.227  24.788  23.887  0.00  0.00     0.087 A 
ENDROOT
BRANCH   1   8
ATOM      8  C   UNL d   1     -18.145  25.517  22.728  0.00  0.00     0.259 C 
ATOM      9  N   UNL d   1     -17.891  26.696  23.333  0.00  0.00    -0.320 N 
ATOM     10  H   UNL d   1     -18.613  27.195  23.744  0.00  0.00     0.169 HD
ATOM     11  O   UNL d   1     -17.238  24.890  22.213  0.00  0.00    -0.267 OA
BRANCH   9  12
ATOM     12  C   UNL d   1     -16.577  27.199  23.367  0.00  0.00     0.078 A 
ATOM     13  C   UNL d   1     -15.602  26.897  24.329  0.00  0.00     0.079 A 
ATOM     14  C   UNL d   1     -15.782  25.975  25.507  0.00  0.00     0.075 C 
ATOM     15  N   UNL d   1     -14.511  27.553  24.028  0.00  0.00    -0.176 NA
ATOM     16  N   UNL d   1     -14.749  28.296  22.865  0.00  0.00    -0.283 N 
ATOM     17  C   UNL d   1     -13.787  29.170  22.189  0.00  0.00     0.179 C 
ATOM     18  C   UNL d   1     -16.027  28.059  22.473  0.00  0.00     0.143 A 
ENDBRANCH   9  12
ENDBRANCH   1   8
BRANCH   7  19
ATOM     19  O   UNL d   1     -19.647  25.080  25.079  0.00  0.00    -0.345 OA
BRANCH  19  20
ATOM     20  C   UNL d   1     -19.816  26.410  25.574  0.00  0.00     0.129 C 
ATOM     21  C   UNL d   1     -21.306  26.750  25.621  0.00  0.00     0.040 C 
BRANCH  20  22
ATOM     22  C   UNL d   1     -19.224  26.510  26.981  0.00  0.00     0.015 C 
ATOM     23  C   UNL d   1     -20.320  26.242  28.015  0.00  0.00     0.007 C 
ATOM     24  C   UNL d   1     -19.730  26.342  29.422  0.00  0.00     0.000 C 
ATOM     25  C   UNL d   1     -19.157  27.745  29.637  0.00  0.00     0.000 C 
ATOM     26  C   UNL d   1     -18.062  28.013  28.604  0.00  0.00     0.000 C 
ATOM     27  C   UNL d   1     -18.653  27.913  27.197  0.00  0.00     0.007 C 
ENDBRANCH  20  22
ENDBRANCH  19  20
ENDBRANCH   7  19
BRANCH   5  28
ATOM     28  N   UNL d   1     -23.418  23.504  22.590  0.00  0.00    -0.178 N 
ATOM     29  C   UNL d   1     -24.488  24.019  23.235  0.00  0.00     0.351 A 
ATOM     30  N   UNL d   1     -25.552  23.266  22.913  0.00  0.00    -0.284 N 
ATOM     31  O   UNL d   1     -24.488  24.988  23.973  0.00  0.00    -0.244 OA
ATOM     32  C   UNL d   1     -25.127  22.248  22.084  0.00  0.00     0.131 A 
ATOM     33  C   UNL d   1     -26.946  23.467  23.323  0.00  0.00     0.135 C 
ATOM     34  N   UNL d   1     -23.862  22.385  21.871  0.00  0.00    -0.149 NA
ATOM     35  C   UNL d   1     -26.036  21.164  21.553  0.00  0.00     0.081 C 
ATOM     36  C   UNL d   1     -27.486  21.651  21.688  0.00  0.00     0.009 C 
ATOM     37  C   UNL d   1     -27.712  22.154  23.118  0.00  0.00     0.021 C 
ENDBRANCH   5  28
TORSDOF 6
ENDMDL
