MODEL 1
REMARK VINA RESULT:     -11.1      0.000      0.000
REMARK  8 active torsions:
REMARK  status: ('A' for Active; 'I' for Inactive)
REMARK    1  A    between atoms: C_2  and  O_3 
REMARK    2  A    between atoms: C_2  and  C_4 
REMARK    3  A    between atoms: C_6  and  C_7 
REMARK    4  A    between atoms: C_12  and  N_13 
REMARK    5  A    between atoms: N_13  and  C_14 
REMARK    6  A    between atoms: C_17  and  C_18 
REMARK    7  A    between atoms: C_22  and  O_23 
REMARK    8  A    between atoms: O_23  and  C_24 
ROOT
ATOM      1  C   UNL d   1     -26.900  22.743  23.685  0.00  0.00     0.068 A 
ATOM      2  C   UNL d   1     -26.222  23.890  24.093  0.00  0.00     0.150 A 
ATOM      3  N   UNL d   1     -25.074  24.196  23.517  0.00  0.00    -0.238 NA
ATOM      4  C   UNL d   1     -24.571  23.433  22.556  0.00  0.00     0.159 A 
ATOM      5  N   UNL d   1     -25.191  22.338  22.139  0.00  0.00    -0.238 NA
ATOM      6  C   UNL d   1     -26.341  21.966  22.672  0.00  0.00     0.150 A 
ENDROOT
BRANCH   1   7
ATOM      7  N   UNL d   1     -28.116  22.383  24.274  0.00  0.00    -0.353 N 
ATOM      8  H   UNL d   1     -28.158  22.199  25.225  0.00  0.00     0.166 HD
BRANCH   7   9
ATOM      9  C   UNL d   1     -29.263  22.288  23.497  0.00  0.00     0.049 A 
ATOM     10  C   UNL d   1     -30.468  21.848  24.068  0.00  0.00     0.064 A 
ATOM     11  C   UNL d   1     -31.616  21.762  23.275  0.00  0.00     0.028 A 
ATOM     12  C   UNL d   1     -31.556  22.097  21.940  0.00  0.00    -0.053 A 
ATOM     13  C   UNL d   1     -30.363  22.525  21.378  0.00  0.00     0.010 A 
ATOM     14  C   UNL d   1     -29.223  22.622  22.149  0.00  0.00     0.031 A 
BRANCH  10  15
ATOM     15  C   UNL d   1     -30.524  21.485  25.494  0.00  0.00     0.178 C 
ATOM     16  O   UNL d   1     -31.309  22.045  26.233  0.00  0.00    -0.646 OA
BRANCH  15  17
ATOM     17  O   UNL d   1     -29.703  20.533  25.980  0.00  0.00    -0.773 OA
ATOM     18  H   UNL d   1     -29.946  19.613  25.803  0.00  0.00     0.167 HD
ENDBRANCH  15  17
ENDBRANCH  10  15
BRANCH  12  19
ATOM     19  C   UNL d   1     -32.794  21.998  21.087  0.00  0.00     0.018 A 
ATOM     20  C   UNL d   1     -33.579  20.685  21.130  0.00  0.00     0.010 A 
ATOM     21  C   UNL d   1     -34.144  21.938  21.803  0.00  0.00     0.010 A 
ENDBRANCH  12  19
ENDBRANCH   7   9
ENDBRANCH   1   7
BRANCH   4  22
ATOM     22  C   UNL d   1     -23.281  23.815  21.931  0.00  0.00     0.014 A 
ATOM     23  C   UNL d   1     -22.106  23.779  22.678  0.00  0.00     0.052 A 
ATOM     24  C   UNL d   1     -20.903  24.132  22.087  0.00  0.00     0.070 A 
ATOM     25  C   UNL d   1     -20.874  24.532  20.758  0.00  0.00     0.037 A 
ATOM     26  C   UNL d   1     -22.041  24.573  20.019  0.00  0.00     0.004 A 
ATOM     27  C   UNL d   1     -23.243  24.218  20.598  0.00  0.00     0.015 A 
BRANCH  24  28
ATOM     28  O   UNL d   1     -19.754  24.093  22.811  0.00  0.00    -0.346 OA
BRANCH  28  29
ATOM     29  C   UNL d   1     -19.775  24.717  24.097  0.00  0.00     0.129 A 
ATOM     30  C   UNL d   1     -18.550  25.537  24.505  0.00  0.00     0.035 A 
ATOM     31  C   UNL d   1     -19.858  26.243  24.141  0.00  0.00     0.035 A 
ENDBRANCH  28  29
ENDBRANCH  24  28
ENDBRANCH   4  22
TORSDOF 8
ENDMDL
