MODEL 1
REMARK VINA RESULT:      -8.7      0.000      0.000
REMARK  2 active torsions:
REMARK  status: ('A' for Active; 'I' for Inactive)
REMARK    1  A    between atoms: C_6  and  N_7 
REMARK    2  A    between atoms: N_7  and  C_8 
ROOT
ATOM      1  C   UNL d   1     -33.836  20.303  24.215  0.00  0.00     0.074 C 
ATOM      2  C   UNL d   1     -32.508  21.013  24.183  0.00  0.00     0.075 A 
ATOM      3  N   UNL d   1     -31.647  21.069  25.161  0.00  0.00    -0.177 NA
ATOM      4  N   UNL d   1     -30.537  21.817  24.754  0.00  0.00    -0.261 N 
ATOM      5  H   UNL d   1     -29.754  22.009  25.294  0.00  0.00     0.191 HD
ATOM      6  C   UNL d   1     -30.739  22.226  23.484  0.00  0.00     0.145 A 
ATOM      7  C   UNL d   1     -31.983  21.741  23.090  0.00  0.00     0.115 A 
ATOM      8  C   UNL d   1     -32.611  21.938  21.818  0.00  0.00     0.105 C 
ATOM      9  N   UNL d   1     -33.109  22.093  20.809  0.00  0.00    -0.191 NA
ENDROOT
BRANCH   6  10
ATOM     10  N   UNL d   1     -29.877  22.990  22.720  0.00  0.00    -0.335 N 
ATOM     11  H   UNL d   1     -30.137  23.879  22.437  0.00  0.00     0.168 HD
BRANCH  10  12
ATOM     12  C   UNL d   1     -28.624  22.477  22.354  0.00  0.00     0.112 A 
ATOM     13  C   UNL d   1     -28.490  21.733  21.189  0.00  0.00     0.149 A 
ATOM     14  C   UNL d   1     -27.251  21.233  20.828  0.00  0.00     0.087 A 
ATOM     15  F   UNL d   1     -29.568  21.496  20.409  0.00  0.00    -0.203 F 
ATOM     16  C   UNL d   1     -26.147  21.474  21.626  0.00  0.00     0.122 A 
ATOM     17  C   UNL d   1     -26.277  22.215  22.789  0.00  0.00     0.087 A 
ATOM     18  F   UNL d   1     -24.939  20.984  21.271  0.00  0.00    -0.206 F 
ATOM     19  C   UNL d   1     -27.513  22.718  23.155  0.00  0.00     0.149 A 
ATOM     20  F   UNL d   1     -27.640  23.441  24.289  0.00  0.00    -0.203 F 
ENDBRANCH  10  12
ENDBRANCH   6  10
TORSDOF 2
ENDMDL
