MODEL 1
REMARK VINA RESULT:     -13.6      0.000      0.000
REMARK  2 active torsions:
REMARK  status: ('A' for Active; 'I' for Inactive)
REMARK    1  A    between atoms: N_15  and  C_16 
REMARK    2  A    between atoms: C_20  and  C_21 
ROOT
ATOM      1  O   UNL d   1     -32.186  21.100  25.836  0.00  0.00    -0.285 OA
ATOM      2  C   UNL d   1     -31.472  21.451  24.919  0.00  0.00     0.216 A 
ATOM      3  C   UNL d   1     -32.034  21.616  23.560  0.00  0.00     0.031 A 
ATOM      4  C   UNL d   1     -33.382  21.369  23.320  0.00  0.00     0.016 A 
ATOM      5  C   UNL d   1     -33.896  21.526  22.044  0.00  0.00     0.001 A 
ATOM      6  C   UNL d   1     -33.078  21.926  21.004  0.00  0.00     0.001 A 
ATOM      7  C   UNL d   1     -31.735  22.184  21.227  0.00  0.00     0.016 A 
ATOM      8  C   UNL d   1     -31.202  22.027  22.503  0.00  0.00     0.031 A 
ATOM      9  C   UNL d   1     -29.766  22.285  22.752  0.00  0.00     0.214 A 
ATOM     10  O   UNL d   1     -29.043  22.637  21.841  0.00  0.00    -0.285 OA
ATOM     11  C   UNL d   1     -29.218  22.113  24.104  0.00  0.00     0.146 A 
ATOM     12  C   UNL d   1     -30.039  21.710  25.152  0.00  0.00     0.164 A 
ATOM     13  N   UNL d   1     -29.251  21.648  26.234  0.00  0.00    -0.125 NA
ATOM     14  N   UNL d   1     -28.053  21.979  25.902  0.00  0.00    -0.059 NA
ATOM     15  N   UNL d   1     -27.978  22.265  24.648  0.00  0.00    -0.209 N 
ENDROOT
BRANCH  15  16
ATOM     16  C   UNL d   1     -26.826  22.661  23.963  0.00  0.00     0.066 A 
ATOM     17  C   UNL d   1     -26.229  21.796  23.053  0.00  0.00     0.075 A 
ATOM     18  C   UNL d   1     -25.091  22.185  22.373  0.00  0.00     0.132 A 
ATOM     19  C   UNL d   1     -24.541  23.448  22.601  0.00  0.00     0.054 A 
ATOM     20  F   UNL d   1     -24.511  21.344  21.490  0.00  0.00    -0.205 F 
ATOM     21  C   UNL d   1     -25.143  24.313  23.516  0.00  0.00     0.132 A 
ATOM     22  C   UNL d   1     -26.284  23.921  24.188  0.00  0.00     0.075 A 
ATOM     23  F   UNL d   1     -24.614  25.537  23.739  0.00  0.00    -0.205 F 
BRANCH  19  24
ATOM     24  C   UNL d   1     -23.320  23.868  21.874  0.00  0.00     0.019 A 
ATOM     25  C   UNL d   1     -22.066  23.745  22.477  0.00  0.00     0.127 A 
ATOM     26  C   UNL d   1     -20.933  24.138  21.792  0.00  0.00     0.043 A 
ATOM     27  F   UNL d   1     -21.964  23.242  23.726  0.00  0.00    -0.205 F 
ATOM     28  C   UNL d   1     -21.038  24.654  20.512  0.00  0.00     0.003 A 
ATOM     29  C   UNL d   1     -22.277  24.778  19.910  0.00  0.00     0.001 A 
ATOM     30  C   UNL d   1     -23.417  24.382  20.582  0.00  0.00     0.015 A 
ENDBRANCH  19  24
ENDBRANCH  15  16
TORSDOF 2
ENDMDL
