MODEL 1
REMARK VINA RESULT:      -9.2      0.000      0.000
REMARK  3 active torsions:
REMARK  status: ('A' for Active; 'I' for Inactive)
REMARK    1  A    between atoms: C_3  and  O_4 
REMARK    2  A    between atoms: C_5  and  C_6 
REMARK    3  A    between atoms: C_6  and  C_7 
ROOT
ATOM      1  O   UNL d   1     -30.780  20.344  26.497  0.00  0.00    -0.284 OA
ATOM      2  C   UNL d   1     -30.629  20.949  25.455  0.00  0.00     0.216 A 
ATOM      3  C   UNL d   1     -29.324  21.577  25.140  0.00  0.00     0.127 A 
ATOM      4  C   UNL d   1     -29.145  22.253  23.985  0.00  0.00     0.034 A 
ATOM      5  C   UNL d   1     -30.233  22.378  23.011  0.00  0.00     0.192 A 
ATOM      6  O   UNL d   1     -30.054  22.990  21.975  0.00  0.00    -0.287 OA
ATOM      7  C   UNL d   1     -31.553  21.769  23.293  0.00  0.00     0.029 A 
ATOM      8  C   UNL d   1     -32.596  21.882  22.384  0.00  0.00     0.016 A 
ATOM      9  C   UNL d   1     -33.823  21.298  22.666  0.00  0.00     0.001 A 
ATOM     10  C   UNL d   1     -34.013  20.606  23.846  0.00  0.00     0.001 A 
ATOM     11  C   UNL d   1     -32.981  20.485  24.764  0.00  0.00     0.016 A 
ATOM     12  C   UNL d   1     -31.746  21.065  24.495  0.00  0.00     0.031 A 
ENDROOT
BRANCH   4  13
ATOM     13  C   UNL d   1     -27.808  22.881  23.692  0.00  0.00     0.075 C 
BRANCH  13  14
ATOM     14  C   UNL d   1     -27.058  22.026  22.703  0.00  0.00     0.014 C 
ATOM     15  C   UNL d   1     -25.789  22.265  22.458  0.00  0.00     0.100 C 
ATOM     16 CL   UNL d   1     -24.978  23.565  23.273  0.00  0.00    -0.071 Cl
ATOM     17 CL   UNL d   1     -24.925  21.280  21.320  0.00  0.00    -0.071 Cl
ENDBRANCH  13  14
ENDBRANCH   4  13
BRANCH   3  18
ATOM     18  O   UNL d   1     -28.301  21.473  26.020  0.00  0.00    -0.356 OA
ATOM     19  H   UNL d   1     -28.241  22.209  26.643  0.00  0.00     0.218 HD
ENDBRANCH   3  18
TORSDOF 3
ENDMDL
