MODEL 1
REMARK VINA RESULT:     -11.5      0.000      0.000
REMARK  5 active torsions:
REMARK  status: ('A' for Active; 'I' for Inactive)
REMARK    1  A    between atoms: C_2  and  O_3 
REMARK    2  A    between atoms: C_2  and  C_4 
REMARK    3  A    between atoms: C_6  and  C_7 
REMARK    4  A    between atoms: C_10  and  O_11 
REMARK    5  A    between atoms: O_11  and  C_12 
ROOT
ATOM      1  C   UNL d   1     -30.039  21.631  24.496  0.00  0.00     0.052 A 
ATOM      2  C   UNL d   1     -28.694  21.951  24.381  0.00  0.00     0.051 A 
ATOM      3  C   UNL d   1     -28.187  22.364  23.139  0.00  0.00     0.068 A 
ATOM      4  N   UNL d   1     -28.945  22.460  22.067  0.00  0.00    -0.247 NA
ATOM      5  C   UNL d   1     -30.247  22.171  22.086  0.00  0.00     0.069 A 
ATOM      6  C   UNL d   1     -31.032  22.282  20.923  0.00  0.00     0.034 A 
ATOM      7  C   UNL d   1     -32.358  21.980  20.972  0.00  0.00     0.026 A 
ATOM      8  C   UNL d   1     -32.957  21.562  22.160  0.00  0.00     0.035 A 
ATOM      9 CL   UNL d   1     -34.652  21.187  22.179  0.00  0.00    -0.084 Cl
ATOM     10  C   UNL d   1     -32.227  21.442  23.306  0.00  0.00     0.038 A 
ATOM     11  C   UNL d   1     -30.861  21.745  23.290  0.00  0.00     0.011 A 
ENDROOT
BRANCH   3  12
ATOM     12  C   UNL d   1     -26.748  22.704  23.030  0.00  0.00    -0.007 A 
ATOM     13  C   UNL d   1     -26.169  23.591  23.936  0.00  0.00     0.016 A 
ATOM     14  C   UNL d   1     -24.830  23.905  23.831  0.00  0.00     0.038 A 
ATOM     15  C   UNL d   1     -24.059  23.336  22.825  0.00  0.00     0.076 A 
ATOM     16  C   UNL d   1     -24.633  22.452  21.921  0.00  0.00     0.038 A 
ATOM     17  C   UNL d   1     -25.971  22.131  22.024  0.00  0.00     0.016 A 
BRANCH  15  18
ATOM     18  O   UNL d   1     -22.741  23.647  22.725  0.00  0.00    -0.311 OA
BRANCH  18  19
ATOM     19  C   UNL d   1     -22.285  24.722  23.420  0.00  0.00     0.076 A 
ATOM     20  C   UNL d   1     -21.183  24.595  24.253  0.00  0.00     0.037 A 
ATOM     21  C   UNL d   1     -20.720  25.688  24.958  0.00  0.00     0.003 A 
ATOM     22  C   UNL d   1     -21.355  26.910  24.834  0.00  0.00     0.000 A 
ATOM     23  C   UNL d   1     -22.454  27.040  24.004  0.00  0.00     0.003 A 
ATOM     24  C   UNL d   1     -22.917  25.950  23.293  0.00  0.00     0.037 A 
ENDBRANCH  18  19
ENDBRANCH  15  18
ENDBRANCH   3  12
BRANCH   1  25
ATOM     25  C   UNL d   1     -30.619  21.192  25.782  0.00  0.00     0.177 C 
ATOM     26  O   UNL d   1     -31.281  21.965  26.445  0.00  0.00    -0.646 OA
BRANCH  25  27
ATOM     27  O   UNL d   1     -30.411  19.935  26.220  0.00  0.00    -0.773 OA
ATOM     28  H   UNL d   1     -31.196  19.411  26.438  0.00  0.00     0.167 HD
ENDBRANCH  25  27
ENDBRANCH   1  25
TORSDOF 5
ENDMDL
