MODEL 1
REMARK VINA RESULT:      -9.7      0.000      0.000
REMARK  7 active torsions:
REMARK  status: ('A' for Active; 'I' for Inactive)
REMARK    1  A    between atoms: C_2  and  N_3 
REMARK    2  A    between atoms: C_5  and  N_6 
REMARK       I    between atoms: N_6  and  C_7 
REMARK    3  A    between atoms: C_7  and  C_9 
REMARK    4  A    between atoms: C_13  and  N_14 
REMARK    5  A    between atoms: C_25  and  O_26 
REMARK    6  A    between atoms: O_26  and  C_27 
REMARK    7  A    between atoms: C_27  and  C_29 
ROOT
ATOM      1  C   UNL d   1     -24.289  24.864  23.484  0.00  0.00     0.068 A 
ATOM      2  C   UNL d   1     -25.195  25.414  24.397  0.00  0.00     0.064 A 
ATOM      3  C   UNL d   1     -26.361  24.746  24.696  0.00  0.00     0.146 A 
ATOM      4  F   UNL d   1     -27.239  25.279  25.573  0.00  0.00    -0.204 F 
ATOM      5  C   UNL d   1     -26.636  23.515  24.098  0.00  0.00     0.104 A 
ATOM      6  C   UNL d   1     -25.742  22.962  23.192  0.00  0.00     0.073 A 
ATOM      7  C   UNL d   1     -24.570  23.629  22.880  0.00  0.00     0.087 A 
ENDROOT
BRANCH   1   8
ATOM      8  C   UNL d   1     -23.044  25.581  23.157  0.00  0.00     0.254 C 
ATOM      9  N   UNL d   1     -21.852  25.052  23.501  0.00  0.00    -0.349 N 
ATOM     10  H   UNL d   1     -21.814  24.201  23.963  0.00  0.00     0.163 HD
ATOM     11  O   UNL d   1     -23.091  26.648  22.577  0.00  0.00    -0.268 OA
BRANCH   9  12
ATOM     12  C   UNL d   1     -20.615  25.766  23.176  0.00  0.00     0.141 C 
ATOM     13  C   UNL d   1     -19.992  26.504  24.375  0.00  0.00     0.299 C 
ATOM     14  N   UNL d   1     -18.690  26.004  23.881  0.00  0.00     0.092 N 
ATOM     15  C   UNL d   1     -19.361  24.872  23.198  0.00  0.00     0.299 C 
BRANCH  14  16
ATOM     16  C   UNL d   1     -17.854  25.529  24.992  0.00  0.00     0.268 C 
ATOM     17  C   UNL d   1     -16.437  26.087  24.837  0.00  0.00     0.037 C 
ENDBRANCH  14  16
ENDBRANCH   9  12
ENDBRANCH   1   8
BRANCH   7  18
ATOM     18  O   UNL d   1     -23.695  23.092  21.994  0.00  0.00    -0.336 OA
BRANCH  18  19
ATOM     19  C   UNL d   1     -23.967  23.303  20.607  0.00  0.00     0.232 C 
ATOM     20  C   UNL d   1     -22.677  23.709  19.891  0.00  0.00     0.049 C 
BRANCH  19  21
ATOM     21  C   UNL d   1     -24.508  22.011  19.990  0.00  0.00     0.413 C 
ATOM     22  F   UNL d   1     -25.883  22.139  19.770  0.00  0.00    -0.168 F 
ATOM     23  F   UNL d   1     -23.861  21.768  18.775  0.00  0.00    -0.168 F 
ATOM     24  F   UNL d   1     -24.274  20.944  20.865  0.00  0.00    -0.168 F 
ENDBRANCH  19  21
ENDBRANCH  18  19
ENDBRANCH   7  18
BRANCH   5  25
ATOM     25  N   UNL d   1     -27.818  22.838  24.411  0.00  0.00    -0.178 N 
ATOM     26  C   UNL d   1     -28.065  22.137  25.538  0.00  0.00     0.351 A 
ATOM     27  N   UNL d   1     -29.323  21.673  25.454  0.00  0.00    -0.284 N 
ATOM     28  O   UNL d   1     -27.291  21.959  26.461  0.00  0.00    -0.244 OA
ATOM     29  C   UNL d   1     -29.847  22.058  24.237  0.00  0.00     0.131 A 
ATOM     30  C   UNL d   1     -30.060  20.904  26.463  0.00  0.00     0.135 C 
ATOM     31  N   UNL d   1     -28.966  22.759  23.608  0.00  0.00    -0.149 NA
ATOM     32  C   UNL d   1     -31.234  21.687  23.765  0.00  0.00     0.081 C 
ATOM     33  C   UNL d   1     -32.051  21.251  24.990  0.00  0.00     0.009 C 
ATOM     34  C   UNL d   1     -31.247  20.215  25.783  0.00  0.00     0.021 C 
ENDBRANCH   5  25
TORSDOF 7
ENDMDL
