MODEL 1
REMARK VINA RESULT:     -10.2      0.000      0.000
REMARK  8 active torsions:
REMARK  status: ('A' for Active; 'I' for Inactive)
REMARK    1  A    between atoms: C_2  and  O_3 
REMARK    2  A    between atoms: C_2  and  C_34 
REMARK    3  A    between atoms: O_3  and  C_4 
REMARK    4  A    between atoms: C_6  and  N_7 
REMARK    5  A    between atoms: C_20  and  C_21 
REMARK       I    between atoms: C_21  and  N_23 
REMARK    6  A    between atoms: N_23  and  C_24 
REMARK    7  A    between atoms: C_28  and  S_29 
REMARK    8  A    between atoms: S_29  and  N_30 
ROOT
ATOM      1  C   UNL d   1     -24.703  23.338  22.638  0.00  0.00     0.087 A 
ATOM      2  C   UNL d   1     -25.968  22.801  22.808  0.00  0.00     0.073 A 
ATOM      3  C   UNL d   1     -26.822  23.323  23.769  0.00  0.00     0.104 A 
ATOM      4  C   UNL d   1     -26.409  24.384  24.574  0.00  0.00     0.146 A 
ATOM      5  F   UNL d   1     -27.243  24.884  25.511  0.00  0.00    -0.204 F 
ATOM      6  C   UNL d   1     -25.151  24.922  24.418  0.00  0.00     0.064 A 
ATOM      7  C   UNL d   1     -24.285  24.405  23.448  0.00  0.00     0.068 A 
ENDROOT
BRANCH   7   8
ATOM      8  C   UNL d   1     -22.940  24.978  23.278  0.00  0.00     0.259 C 
ATOM      9  O   UNL d   1     -22.798  26.032  22.689  0.00  0.00    -0.267 OA
ATOM     10  N   UNL d   1     -21.865  24.334  23.775  0.00  0.00    -0.323 N 
ATOM     11  H   UNL d   1     -21.983  23.525  24.297  0.00  0.00     0.169 HD
BRANCH  10  12
ATOM     12  C   UNL d   1     -20.579  24.832  23.537  0.00  0.00     0.036 A 
ATOM     13  C   UNL d   1     -19.986  25.691  24.452  0.00  0.00     0.054 A 
ATOM     14  C   UNL d   1     -18.716  26.180  24.215  0.00  0.00     0.081 A 
ATOM     15  C   UNL d   1     -18.036  25.814  23.067  0.00  0.00     0.025 A 
ATOM     16  C   UNL d   1     -18.624  24.959  22.154  0.00  0.00     0.004 A 
ATOM     17  C   UNL d   1     -19.892  24.462  22.388  0.00  0.00     0.029 A 
BRANCH  14  18
ATOM     18  S   UNL d   1     -17.961  27.269  25.375  0.00  0.00     0.256 S 
ATOM     19  O   UNL d   1     -16.955  27.978  24.665  0.00  0.00    -0.201 OA
ATOM     20  O   UNL d   1     -19.022  27.913  26.070  0.00  0.00    -0.201 OA
BRANCH  18  21
ATOM     21  N   UNL d   1     -17.174  26.330  26.489  0.00  0.00    -0.324 N 
ATOM     22  H   UNL d   1     -16.276  26.013  26.308  0.00  0.00     0.169 HD
ATOM     23  H   UNL d   1     -17.611  26.099  27.324  0.00  0.00     0.169 HD
ENDBRANCH  18  21
ENDBRANCH  14  18
ENDBRANCH  10  12
ENDBRANCH   7   8
BRANCH   1  24
ATOM     24  O   UNL d   1     -23.869  22.831  21.696  0.00  0.00    -0.336 OA
BRANCH  24  25
ATOM     25  C   UNL d   1     -23.955  23.390  20.384  0.00  0.00     0.232 C 
ATOM     26  C   UNL d   1     -22.562  23.820  19.920  0.00  0.00     0.049 C 
BRANCH  25  27
ATOM     27  C   UNL d   1     -24.513  22.343  19.419  0.00  0.00     0.413 C 
ATOM     28  F   UNL d   1     -24.594  22.889  18.134  0.00  0.00    -0.168 F 
ATOM     29  F   UNL d   1     -23.667  21.228  19.400  0.00  0.00    -0.168 F 
ATOM     30  F   UNL d   1     -25.790  21.953  19.841  0.00  0.00    -0.168 F 
ENDBRANCH  25  27
ENDBRANCH  24  25
ENDBRANCH   1  24
BRANCH   3  31
ATOM     31  N   UNL d   1     -28.099  22.781  23.934  0.00  0.00    -0.178 N 
ATOM     32  C   UNL d   1     -28.515  22.011  24.963  0.00  0.00     0.351 A 
ATOM     33  N   UNL d   1     -29.810  21.726  24.753  0.00  0.00    -0.284 N 
ATOM     34  O   UNL d   1     -27.838  21.642  25.907  0.00  0.00    -0.244 OA
ATOM     35  C   UNL d   1     -30.190  22.295  23.555  0.00  0.00     0.131 A 
ATOM     36  C   UNL d   1     -30.710  20.964  25.627  0.00  0.00     0.135 C 
ATOM     37  N   UNL d   1     -29.186  22.932  23.059  0.00  0.00    -0.149 NA
ATOM     38  C   UNL d   1     -31.574  22.157  22.962  0.00  0.00     0.081 C 
ATOM     39  C   UNL d   1     -32.527  21.714  24.081  0.00  0.00     0.009 C 
ATOM     40  C   UNL d   1     -31.921  20.508  24.805  0.00  0.00     0.021 C 
ENDBRANCH   3  31
TORSDOF 8
ENDMDL
