MODEL 1
REMARK VINA RESULT:     -10.6      0.000      0.000
REMARK  6 active torsions:
REMARK  status: ('A' for Active; 'I' for Inactive)
REMARK    1  A    between atoms: C_4  and  N_5 
REMARK    2  A    between atoms: N_5  and  N_6 
REMARK    3  A    between atoms: C_7  and  C_8 
REMARK    4  A    between atoms: C_13  and  C_14 
REMARK    5  A    between atoms: C_14  and  O_16 
REMARK    6  A    between atoms: C_18  and  C_19 
ROOT
ATOM      1  N   UNL d   1     -28.160  22.405  24.381  0.00  0.00    -0.255 N 
ATOM      2  H   UNL d   1     -28.144  22.762  25.282  0.00  0.00     0.191 HD
ENDROOT
BRANCH   1   3
ATOM      3  C   UNL d   1     -27.037  22.505  23.576  0.00  0.00     0.188 A 
ATOM      4  S   UNL d   1     -26.814  21.685  22.033  0.00  0.00    -0.053 SA
ATOM      5  C   UNL d   1     -25.222  22.421  21.871  0.00  0.00     0.012 A 
ATOM      6  C   UNL d   1     -24.271  22.224  20.720  0.00  0.00     0.059 C 
ATOM      7  C   UNL d   1     -25.000  23.187  22.955  0.00  0.00     0.082 A 
ATOM      8  N   UNL d   1     -25.982  23.212  23.844  0.00  0.00    -0.222 NA
BRANCH   7   9
ATOM      9  C   UNL d   1     -23.742  23.949  23.143  0.00  0.00    -0.006 A 
ATOM     10  C   UNL d   1     -23.730  25.332  22.966  0.00  0.00     0.014 A 
ATOM     11  C   UNL d   1     -22.557  26.038  23.143  0.00  0.00     0.001 A 
ATOM     12  C   UNL d   1     -21.394  25.375  23.492  0.00  0.00     0.000 A 
ATOM     13  C   UNL d   1     -21.400  24.003  23.668  0.00  0.00     0.001 A 
ATOM     14  C   UNL d   1     -22.569  23.288  23.500  0.00  0.00     0.014 A 
ENDBRANCH   7   9
ENDBRANCH   1   3
BRANCH   1  15
ATOM     15  N   UNL d   1     -29.319  21.788  23.892  0.00  0.00    -0.184 NA
ATOM     16  C   UNL d   1     -30.415  22.475  23.759  0.00  0.00     0.151 C 
BRANCH  16  17
ATOM     17  C   UNL d   1     -31.631  21.828  23.247  0.00  0.00    -0.000 A 
ATOM     18  C   UNL d   1     -32.332  20.899  24.045  0.00  0.00     0.049 A 
ATOM     19  C   UNL d   1     -33.488  20.297  23.547  0.00  0.00     0.019 A 
ATOM     20  C   UNL d   1     -33.936  20.609  22.280  0.00  0.00     0.001 A 
ATOM     21  C   UNL d   1     -33.244  21.517  21.493  0.00  0.00     0.001 A 
ATOM     22  C   UNL d   1     -32.100  22.123  21.965  0.00  0.00     0.014 A 
BRANCH  18  23
ATOM     23  C   UNL d   1     -31.850  20.571  25.398  0.00  0.00     0.177 C 
ATOM     24  O   UNL d   1     -32.234  21.216  26.353  0.00  0.00    -0.646 OA
BRANCH  23  25
ATOM     25  O   UNL d   1     -30.982  19.555  25.576  0.00  0.00    -0.773 OA
ATOM     26  H   UNL d   1     -30.121  19.632  25.143  0.00  0.00     0.167 HD
ENDBRANCH  23  25
ENDBRANCH  18  23
ENDBRANCH  16  17
ENDBRANCH   1  15
TORSDOF 6
ENDMDL
