MODEL 1
REMARK VINA RESULT:      -9.5      0.000      0.000
REMARK  7 active torsions:
REMARK  status: ('A' for Active; 'I' for Inactive)
REMARK    1  A    between atoms: C_2  and  C_3 
REMARK    2  A    between atoms: C_3  and  O_5 
REMARK    3  A    between atoms: O_5  and  C_6 
REMARK    4  A    between atoms: C_8  and  N_9 
REMARK       I    between atoms: N_9  and  C_10 
REMARK    5  A    between atoms: C_10  and  C_12 
REMARK    6  A    between atoms: C_15  and  O_17 
REMARK    7  A    between atoms: C_21  and  C_22 
ROOT
ATOM      1  C   UNL d   1     -30.797  22.153  22.622  0.00  0.00     0.141 C 
ATOM      2  C   UNL d   1     -31.418  21.843  23.873  0.00  0.00     0.107 C 
ATOM      3  N   UNL d   1     -31.911  21.597  24.867  0.00  0.00    -0.191 NA
ATOM      4  C   UNL d   1     -31.502  22.027  21.461  0.00  0.00     0.065 C 
ATOM      5  C   UNL d   1     -32.935  21.562  21.496  0.00  0.00     0.077 C 
ENDROOT
BRANCH   1   6
ATOM      6  C   UNL d   1     -29.400  22.608  22.586  0.00  0.00     0.269 C 
ATOM      7  N   UNL d   1     -28.463  21.959  23.305  0.00  0.00    -0.320 N 
ATOM      8  H   UNL d   1     -28.699  21.159  23.801  0.00  0.00     0.169 HD
ATOM      9  O   UNL d   1     -29.089  23.569  21.908  0.00  0.00    -0.266 OA
BRANCH   7  10
ATOM     10  C   UNL d   1     -27.149  22.438  23.335  0.00  0.00     0.076 A 
ATOM     11  C   UNL d   1     -26.269  22.116  22.312  0.00  0.00     0.070 A 
ATOM     12  C   UNL d   1     -24.969  22.590  22.340  0.00  0.00     0.082 A 
ATOM     13  C   UNL d   1     -24.544  23.393  23.402  0.00  0.00     0.012 A 
ATOM     14  C   UNL d   1     -25.430  23.708  24.432  0.00  0.00     0.059 A 
ATOM     15  C   UNL d   1     -26.726  23.237  24.395  0.00  0.00     0.144 A 
ATOM     16  F   UNL d   1     -27.585  23.547  25.390  0.00  0.00    -0.204 F 
BRANCH  12  17
ATOM     17  O   UNL d   1     -24.108  22.276  21.337  0.00  0.00    -0.345 OA
BRANCH  17  18
ATOM     18  C   UNL d   1     -24.066  23.162  20.217  0.00  0.00     0.124 C 
ATOM     19  C   UNL d   1     -24.718  22.489  19.008  0.00  0.00     0.040 C 
BRANCH  18  20
ATOM     20  C   UNL d   1     -22.610  23.499  19.888  0.00  0.00     0.027 C 
ATOM     21  C   UNL d   1     -22.395  25.009  20.015  0.00  0.00     0.007 C 
ENDBRANCH  18  20
ENDBRANCH  17  18
ENDBRANCH  12  17
BRANCH  13  22
ATOM     22  C   UNL d   1     -23.152  23.903  23.438  0.00  0.00    -0.001 A 
ATOM     23  C   UNL d   1     -22.911  25.276  23.471  0.00  0.00     0.045 A 
ATOM     24  C   UNL d   1     -21.611  25.745  23.497  0.00  0.00     0.024 A 
ATOM     25 CL   UNL d   1     -24.239  26.393  23.472  0.00  0.00    -0.083 Cl
ATOM     26  C   UNL d   1     -20.553  24.856  23.502  0.00  0.00     0.002 A 
ATOM     27  C   UNL d   1     -20.787  23.493  23.474  0.00  0.00     0.001 A 
ATOM     28  C   UNL d   1     -22.080  23.012  23.442  0.00  0.00     0.014 A 
ENDBRANCH  13  22
ENDBRANCH   7  10
ENDBRANCH   1   6
BRANCH   4  29
ATOM     29  O   UNL d   1     -30.919  22.318  20.285  0.00  0.00    -0.364 OA
ATOM     30  H   UNL d   1     -30.279  23.041  20.280  0.00  0.00     0.217 HD
ENDBRANCH   4  29
TORSDOF 7
ENDMDL
