MODEL 1
REMARK VINA RESULT:     -11.2      0.000      0.000
REMARK  4 active torsions:
REMARK  status: ('A' for Active; 'I' for Inactive)
REMARK    1  A    between atoms: C_2  and  O_3 
REMARK    2  A    between atoms: C_2  and  C_4 
REMARK    3  A    between atoms: C_10  and  C_11 
REMARK    4  A    between atoms: C_14  and  C_15 
ROOT
ATOM      1  C   UNL d   1     -32.473  21.655  22.811  0.00  0.00     0.073 A 
ATOM      2  C   UNL d   1     -33.433  21.184  23.708  0.00  0.00     0.021 A 
ATOM      3  C   UNL d   1     -33.072  20.826  24.993  0.00  0.00     0.004 A 
ATOM      4  C   UNL d   1     -31.762  20.933  25.410  0.00  0.00     0.034 A 
ATOM      5  C   UNL d   1     -30.783  21.406  24.531  0.00  0.00     0.094 A 
ATOM      6  N   UNL d   1     -29.447  21.617  24.644  0.00  0.00    -0.221 NA
ATOM      7  C   UNL d   1     -28.997  22.078  23.504  0.00  0.00     0.180 A 
ATOM      8  O   UNL d   1     -30.007  22.184  22.619  0.00  0.00    -0.288 OA
ATOM      9  C   UNL d   1     -31.140  21.773  23.224  0.00  0.00     0.123 A 
ENDROOT
BRANCH   7  10
ATOM     10  C   UNL d   1     -27.589  22.431  23.229  0.00  0.00     0.017 A 
ATOM     11  C   UNL d   1     -26.941  23.386  24.015  0.00  0.00     0.017 A 
ATOM     12  C   UNL d   1     -25.629  23.714  23.758  0.00  0.00     0.013 A 
ATOM     13  C   UNL d   1     -24.947  23.092  22.713  0.00  0.00    -0.026 A 
ATOM     14  C   UNL d   1     -25.593  22.138  21.926  0.00  0.00     0.013 A 
ATOM     15  C   UNL d   1     -26.904  21.805  22.184  0.00  0.00     0.017 A 
BRANCH  13  16
ATOM     16  C   UNL d   1     -23.533  23.445  22.437  0.00  0.00    -0.026 A 
ATOM     17  C   UNL d   1     -22.564  23.270  23.423  0.00  0.00     0.012 A 
ATOM     18  C   UNL d   1     -21.249  23.601  23.161  0.00  0.00     0.001 A 
ATOM     19  C   UNL d   1     -20.894  24.105  21.923  0.00  0.00     0.000 A 
ATOM     20  C   UNL d   1     -21.852  24.279  20.941  0.00  0.00     0.001 A 
ATOM     21  C   UNL d   1     -23.168  23.948  21.190  0.00  0.00     0.012 A 
ENDBRANCH  13  16
ENDBRANCH   7  10
BRANCH   1  22
ATOM     22  C   UNL d   1     -32.860  22.031  21.439  0.00  0.00     0.179 C 
ATOM     23  O   UNL d   1     -34.011  22.333  21.194  0.00  0.00    -0.646 OA
BRANCH  22  24
ATOM     24  O   UNL d   1     -31.936  22.042  20.457  0.00  0.00    -0.773 OA
ATOM     25  H   UNL d   1     -31.498  22.885  20.276  0.00  0.00     0.167 HD
ENDBRANCH  22  24
ENDBRANCH   1  22
TORSDOF 4
ENDMDL
