MODEL 1
REMARK VINA RESULT:      -7.4      0.000      0.000
REMARK  7 active torsions:
REMARK  status: ('A' for Active; 'I' for Inactive)
REMARK    1  A    between atoms: C_2  and  C_4 
REMARK    2  A    between atoms: N_6  and  C_7 
REMARK    3  A    between atoms: C_19  and  N_20 
REMARK    4  A    between atoms: C_22  and  C_23 
REMARK    5  A    between atoms: C_23  and  O_24 
REMARK    6  A    between atoms: N_25  and  C_26 
REMARK    7  A    between atoms: C_30  and  O_31 
ROOT
ATOM      1  C   UNL d   1     -17.710  26.633  24.087  0.00  0.00     0.094 A 
ATOM      2  N   UNL d   1     -17.459  27.076  25.295  0.00  0.00    -0.163 NA
ATOM      3  N   UNL d   1     -18.368  26.944  26.345  0.00  0.00    -0.192 N 
ATOM      4  C   UNL d   1     -19.566  26.350  26.180  0.00  0.00     0.280 A 
ATOM      5  O   UNL d   1     -20.341  26.247  27.114  0.00  0.00    -0.265 OA
ATOM      6  C   UNL d   1     -19.925  25.826  24.857  0.00  0.00     0.049 A 
ATOM      7  C   UNL d   1     -21.152  25.207  24.620  0.00  0.00     0.052 A 
ATOM      8  C   UNL d   1     -21.441  24.727  23.357  0.00  0.00     0.098 A 
ATOM      9  C   UNL d   1     -20.516  24.868  22.315  0.00  0.00     0.098 A 
ATOM     10  C   UNL d   1     -19.299  25.484  22.535  0.00  0.00     0.054 A 
ATOM     11  C   UNL d   1     -18.991  25.969  23.804  0.00  0.00     0.013 A 
ENDROOT
BRANCH   8  12
ATOM     12  N   UNL d   1     -22.670  24.100  23.116  0.00  0.00    -0.178 N 
ATOM     13  C   UNL d   1     -23.891  24.594  23.409  0.00  0.00     0.351 A 
ATOM     14  N   UNL d   1     -24.801  23.678  23.018  0.00  0.00    -0.283 N 
ATOM     15  O   UNL d   1     -24.128  25.667  23.933  0.00  0.00    -0.244 OA
ATOM     16  C   UNL d   1     -24.132  22.612  22.469  0.00  0.00     0.154 A 
ATOM     17  N   UNL d   1     -22.860  22.846  22.519  0.00  0.00    -0.147 NA
BRANCH  14  18
ATOM     18  C   UNL d   1     -26.254  23.803  23.150  0.00  0.00     0.131 C 
ATOM     19  C   UNL d   1     -26.687  23.299  24.528  0.00  0.00     0.027 C 
ENDBRANCH  14  18
BRANCH  16  20
ATOM     20  C   UNL d   1     -24.774  21.371  21.902  0.00  0.00     0.244 C 
BRANCH  20  21
ATOM     21  O   UNL d   1     -25.240  21.639  20.578  0.00  0.00    -0.393 OA
ATOM     22  H   UNL d   1     -25.757  22.453  20.501  0.00  0.00     0.209 HD
ENDBRANCH  20  21
ENDBRANCH  16  20
ENDBRANCH   8  12
BRANCH   9  23
ATOM     23  O   UNL d   1     -20.818  24.395  21.078  0.00  0.00    -0.354 OA
ATOM     24  C   UNL d   1     -21.444  25.304  20.170  0.00  0.00     0.210 C 
ENDBRANCH   9  23
BRANCH   3  25
ATOM     25  C   UNL d   1     -18.025  27.444  27.608  0.00  0.00     0.122 A 
ATOM     26  C   UNL d   1     -18.504  28.682  28.020  0.00  0.00     0.066 A 
ATOM     27  C   UNL d   1     -18.167  29.170  29.268  0.00  0.00     0.026 A 
ATOM     28 CL   UNL d   1     -19.530  29.610  26.971  0.00  0.00    -0.082 Cl
ATOM     29  C   UNL d   1     -17.346  28.434  30.102  0.00  0.00     0.005 A 
ATOM     30  C   UNL d   1     -16.862  27.205  29.694  0.00  0.00     0.045 A 
ATOM     31  C   UNL d   1     -17.199  26.707  28.449  0.00  0.00     0.146 A 
ATOM     32  F   UNL d   1     -16.727  25.504  28.051  0.00  0.00    -0.204 F 
ENDBRANCH   3  25
BRANCH   1  33
ATOM     33  C   UNL d   1     -16.711  26.801  23.016  0.00  0.00    -0.040 C 
ATOM     34  C   UNL d   1     -16.422  28.014  22.561  0.00  0.00     0.021 C 
ATOM     35  C   UNL d   1     -16.017  25.595  22.437  0.00  0.00     0.050 C 
ENDBRANCH   1  33
TORSDOF 7
ENDMDL
