MODEL 1
REMARK VINA RESULT:      -9.6      0.000      0.000
REMARK  7 active torsions:
REMARK  status: ('A' for Active; 'I' for Inactive)
REMARK    1  A    between atoms: C_2  and  O_3 
REMARK    2  A    between atoms: C_4  and  C_7 
REMARK       I    between atoms: C_7  and  N_9 
REMARK    3  A    between atoms: N_9  and  C_10 
REMARK    4  A    between atoms: C_12  and  O_13 
REMARK    5  A    between atoms: O_13  and  C_14 
REMARK    6  A    between atoms: C_17  and  C_18 
REMARK       I    between atoms: C_18  and  N_20 
REMARK    7  A    between atoms: N_20  and  C_21 
ROOT
ATOM      1  C   UNL d   1     -33.430  20.064  25.640  0.00  0.00     0.077 C 
ATOM      2  C   UNL d   1     -32.129  20.788  25.412  0.00  0.00     0.065 C 
ATOM      3  C   UNL d   1     -31.816  21.252  24.169  0.00  0.00     0.141 C 
ATOM      4  C   UNL d   1     -32.723  21.051  23.079  0.00  0.00     0.107 C 
ATOM      5  N   UNL d   1     -33.442  20.891  22.215  0.00  0.00    -0.191 NA
ENDROOT
BRANCH   3   6
ATOM      6  C   UNL d   1     -30.546  21.958  23.946  0.00  0.00     0.269 C 
ATOM      7  O   UNL d   1     -30.546  23.078  23.468  0.00  0.00    -0.266 OA
ATOM      8  N   UNL d   1     -29.379  21.366  24.271  0.00  0.00    -0.320 N 
ATOM      9  H   UNL d   1     -29.374  20.454  24.604  0.00  0.00     0.169 HD
BRANCH   8  10
ATOM     10  C   UNL d   1     -28.179  22.063  24.131  0.00  0.00     0.076 A 
ATOM     11  C   UNL d   1     -27.584  22.653  25.244  0.00  0.00     0.144 A 
ATOM     12  C   UNL d   1     -26.399  23.342  25.112  0.00  0.00     0.064 A 
ATOM     13  F   UNL d   1     -28.169  22.548  26.457  0.00  0.00    -0.204 F 
ATOM     14  C   UNL d   1     -25.788  23.447  23.857  0.00  0.00     0.068 A 
ATOM     15  C   UNL d   1     -26.392  22.858  22.737  0.00  0.00     0.087 A 
ATOM     16  C   UNL d   1     -27.583  22.167  22.880  0.00  0.00     0.070 A 
BRANCH  14  17
ATOM     17  C   UNL d   1     -24.519  24.179  23.712  0.00  0.00     0.259 C 
ATOM     18  O   UNL d   1     -24.501  25.390  23.817  0.00  0.00    -0.267 OA
ATOM     19  N   UNL d   1     -23.378  23.507  23.464  0.00  0.00    -0.322 N 
ATOM     20  H   UNL d   1     -23.380  22.537  23.444  0.00  0.00     0.169 HD
BRANCH  19  21
ATOM     21  C   UNL d   1     -22.189  24.208  23.233  0.00  0.00     0.052 A 
ATOM     22  C   UNL d   1     -21.856  24.608  21.944  0.00  0.00     0.037 A 
ATOM     23  C   UNL d   1     -20.684  25.306  21.722  0.00  0.00     0.021 A 
ATOM     24 BR   UNL d   1     -23.008  24.207  20.500  0.00  0.00    -0.049 Br
ATOM     25  C   UNL d   1     -19.838  25.595  22.776  0.00  0.00     0.002 A 
ATOM     26  C   UNL d   1     -20.164  25.192  24.059  0.00  0.00     0.002 A 
ATOM     27  C   UNL d   1     -21.337  24.500  24.290  0.00  0.00     0.031 A 
ENDBRANCH  19  21
ENDBRANCH  14  17
BRANCH  15  28
ATOM     28  O   UNL d   1     -25.809  22.960  21.516  0.00  0.00    -0.346 OA
BRANCH  28  29
ATOM     29  C   UNL d   1     -25.617  21.747  20.784  0.00  0.00     0.120 C 
ATOM     30  C   UNL d   1     -24.544  20.901  21.473  0.00  0.00     0.040 C 
ATOM     31  C   UNL d   1     -25.169  22.076  19.359  0.00  0.00     0.040 C 
ENDBRANCH  28  29
ENDBRANCH  15  28
ENDBRANCH   8  10
ENDBRANCH   3   6
BRANCH   2  32
ATOM     32  O   UNL d   1     -31.277  20.978  26.434  0.00  0.00    -0.364 OA
ATOM     33  H   UNL d   1     -31.665  21.174  27.298  0.00  0.00     0.217 HD
ENDBRANCH   2  32
TORSDOF 7
ENDMDL
