MODEL 1
REMARK VINA RESULT:      -9.0      0.000      0.000
REMARK  7 active torsions:
REMARK  status: ('A' for Active; 'I' for Inactive)
REMARK    1  A    between atoms: C_8  and  N_9 
REMARK       I    between atoms: N_9  and  C_10 
REMARK    2  A    between atoms: C_10  and  C_12 
REMARK    3  A    between atoms: C_16  and  N_17 
REMARK    4  A    between atoms: C_28  and  O_29 
REMARK    5  A    between atoms: O_29  and  C_30 
REMARK    6  A    between atoms: C_30  and  C_32 
REMARK    7  A    between atoms: C_32  and  N_33 
ROOT
ATOM      1  C   UNL d   1     -25.811  22.472  22.241  0.00  0.00     0.068 A 
ATOM      2  C   UNL d   1     -26.436  21.669  21.280  0.00  0.00     0.064 A 
ATOM      3  C   UNL d   1     -27.805  21.529  21.288  0.00  0.00     0.146 A 
ATOM      4  F   UNL d   1     -28.409  20.753  20.360  0.00  0.00    -0.204 F 
ATOM      5  C   UNL d   1     -28.573  22.185  22.251  0.00  0.00     0.104 A 
ATOM      6  C   UNL d   1     -27.960  22.983  23.207  0.00  0.00     0.073 A 
ATOM      7  C   UNL d   1     -26.585  23.131  23.208  0.00  0.00     0.087 A 
ENDROOT
BRANCH   1   8
ATOM      8  C   UNL d   1     -24.346  22.625  22.237  0.00  0.00     0.259 C 
ATOM      9  N   UNL d   1     -23.797  23.852  22.342  0.00  0.00    -0.320 N 
ATOM     10  H   UNL d   1     -24.361  24.624  22.503  0.00  0.00     0.169 HD
ATOM     11  O   UNL d   1     -23.633  21.646  22.137  0.00  0.00    -0.267 OA
BRANCH   9  12
ATOM     12  C   UNL d   1     -22.411  24.011  22.219  0.00  0.00     0.080 A 
ATOM     13  C   UNL d   1     -21.852  24.307  20.984  0.00  0.00    -0.032 A 
ATOM     14  C   UNL d   1     -22.736  24.457  19.773  0.00  0.00     0.050 C 
ATOM     15  C   UNL d   1     -20.485  24.467  20.867  0.00  0.00     0.009 A 
ATOM     16  C   UNL d   1     -19.672  24.325  21.975  0.00  0.00     0.004 A 
ATOM     17  C   UNL d   1     -20.224  24.025  23.208  0.00  0.00     0.045 A 
ATOM     18  C   UNL d   1     -21.592  23.868  23.333  0.00  0.00     0.143 A 
ATOM     19  F   UNL d   1     -22.132  23.574  24.537  0.00  0.00    -0.204 F 
ENDBRANCH   9  12
ENDBRANCH   1   8
BRANCH   7  20
ATOM     20  O   UNL d   1     -25.985  23.911  24.143  0.00  0.00    -0.343 OA
BRANCH  20  21
ATOM     21  C   UNL d   1     -26.791  24.343  25.241  0.00  0.00     0.153 C 
ATOM     22  C   UNL d   1     -26.409  25.775  25.621  0.00  0.00     0.042 C 
BRANCH  21  23
ATOM     23  C   UNL d   1     -26.558  23.419  26.438  0.00  0.00     0.303 C 
BRANCH  23  24
ATOM     24  N   UNL d   1     -27.644  22.433  26.514  0.00  0.00     0.082 N 
ATOM     25  C   UNL d   1     -27.125  21.102  26.855  0.00  0.00     0.309 C 
ATOM     26  C   UNL d   1     -28.675  22.857  27.471  0.00  0.00     0.309 C 
ENDBRANCH  23  24
ENDBRANCH  21  23
ENDBRANCH  20  21
ENDBRANCH   7  20
BRANCH   5  27
ATOM     27  N   UNL d   1     -29.962  22.042  22.249  0.00  0.00    -0.178 N 
ATOM     28  C   UNL d   1     -30.736  21.735  23.312  0.00  0.00     0.351 A 
ATOM     29  N   UNL d   1     -32.012  21.722  22.890  0.00  0.00    -0.284 N 
ATOM     30  O   UNL d   1     -30.351  21.512  24.445  0.00  0.00    -0.244 OA
ATOM     31  C   UNL d   1     -32.023  21.989  21.536  0.00  0.00     0.131 A 
ATOM     32  C   UNL d   1     -33.217  21.496  23.693  0.00  0.00     0.135 C 
ATOM     33  N   UNL d   1     -30.812  22.197  21.143  0.00  0.00    -0.149 NA
ATOM     34  C   UNL d   1     -33.277  22.010  20.694  0.00  0.00     0.081 C 
ATOM     35  C   UNL d   1     -34.479  22.158  21.638  0.00  0.00     0.009 C 
ATOM     36  C   UNL d   1     -34.368  21.115  22.756  0.00  0.00     0.021 C 
ENDBRANCH   5  27
TORSDOF 7
ENDMDL
