MODEL 1
REMARK VINA RESULT:     -11.4      0.000      0.000
REMARK  4 active torsions:
REMARK  status: ('A' for Active; 'I' for Inactive)
REMARK    1  A    between atoms: C_2  and  O_3 
REMARK    2  A    between atoms: C_2  and  C_4 
REMARK    3  A    between atoms: C_11  and  C_12 
REMARK    4  A    between atoms: C_15  and  C_16 
ROOT
ATOM      1  C   UNL d   1     -31.294  21.348  24.611  0.00  0.00     0.068 A 
ATOM      2  C   UNL d   1     -32.547  21.316  23.996  0.00  0.00     0.044 A 
ATOM      3  C   UNL d   1     -32.696  21.759  22.693  0.00  0.00     0.037 A 
ATOM      4 CL   UNL d   1     -34.262  21.713  21.945  0.00  0.00    -0.084 Cl
ATOM      5  C   UNL d   1     -31.614  22.237  21.983  0.00  0.00     0.058 A 
ATOM      6  C   UNL d   1     -30.349  22.279  22.577  0.00  0.00     0.088 A 
ATOM      7  N   UNL d   1     -29.131  22.685  22.141  0.00  0.00    -0.228 NA
ATOM      8  C   UNL d   1     -28.246  22.518  23.094  0.00  0.00     0.139 A 
ATOM      9  N   UNL d   1     -28.854  21.986  24.201  0.00  0.00    -0.338 N 
ATOM     10  H   UNL d   1     -28.425  21.762  25.040  0.00  0.00     0.167 HD
ATOM     11  C   UNL d   1     -30.188  21.830  23.900  0.00  0.00     0.080 A 
ENDROOT
BRANCH   8  12
ATOM     12  C   UNL d   1     -26.810  22.848  22.989  0.00  0.00     0.010 A 
ATOM     13  C   UNL d   1     -25.985  22.114  22.134  0.00  0.00     0.016 A 
ATOM     14  C   UNL d   1     -24.647  22.423  22.037  0.00  0.00     0.013 A 
ATOM     15  C   UNL d   1     -24.115  23.468  22.792  0.00  0.00    -0.026 A 
ATOM     16  C   UNL d   1     -24.938  24.202  23.646  0.00  0.00     0.013 A 
ATOM     17  C   UNL d   1     -26.277  23.898  23.740  0.00  0.00     0.016 A 
BRANCH  15  18
ATOM     18  C   UNL d   1     -22.673  23.801  22.686  0.00  0.00    -0.026 A 
ATOM     19  C   UNL d   1     -21.889  23.892  23.834  0.00  0.00     0.012 A 
ATOM     20  C   UNL d   1     -20.549  24.201  23.729  0.00  0.00     0.001 A 
ATOM     21  C   UNL d   1     -19.982  24.420  22.485  0.00  0.00     0.000 A 
ATOM     22  C   UNL d   1     -20.755  24.331  21.342  0.00  0.00     0.001 A 
ATOM     23  C   UNL d   1     -22.096  24.016  21.435  0.00  0.00     0.012 A 
ENDBRANCH  15  18
ENDBRANCH   8  12
BRANCH   1  24
ATOM     24  C   UNL d   1     -31.137  20.877  25.998  0.00  0.00     0.178 C 
ATOM     25  O   UNL d   1     -30.496  21.536  26.794  0.00  0.00    -0.646 OA
BRANCH  24  26
ATOM     26  O   UNL d   1     -31.704  19.718  26.385  0.00  0.00    -0.773 OA
ATOM     27  H   UNL d   1     -31.732  19.539  27.335  0.00  0.00     0.167 HD
ENDBRANCH  24  26
ENDBRANCH   1  24
TORSDOF 4
ENDMDL
