MODEL 1
REMARK VINA RESULT:     -10.6      0.000      0.000
REMARK  7 active torsions:
REMARK  status: ('A' for Active; 'I' for Inactive)
REMARK    1  A    between atoms: C_2  and  C_3 
REMARK    2  A    between atoms: C_3  and  C_4 
REMARK    3  A    between atoms: C_4  and  O_6 
REMARK    4  A    between atoms: O_6  and  C_7 
REMARK    5  A    between atoms: C_9  and  N_10 
REMARK    6  A    between atoms: C_23  and  C_24 
REMARK       I    between atoms: C_24  and  N_26 
REMARK    7  A    between atoms: N_26  and  C_27 
ROOT
ATOM      1  C   UNL d   1     -26.144  23.235  23.277  0.00  0.00     0.087 A 
ATOM      2  C   UNL d   1     -27.519  23.087  23.324  0.00  0.00     0.073 A 
ATOM      3  C   UNL d   1     -28.159  22.253  22.417  0.00  0.00     0.105 A 
ATOM      4  C   UNL d   1     -27.422  21.563  21.455  0.00  0.00     0.146 A 
ATOM      5  F   UNL d   1     -28.051  20.753  20.576  0.00  0.00    -0.204 F 
ATOM      6  C   UNL d   1     -26.053  21.703  21.401  0.00  0.00     0.064 A 
ATOM      7  C   UNL d   1     -25.400  22.542  22.311  0.00  0.00     0.068 A 
ENDROOT
BRANCH   7   8
ATOM      8  C   UNL d   1     -23.937  22.696  22.255  0.00  0.00     0.259 C 
ATOM      9  O   UNL d   1     -23.216  21.744  22.491  0.00  0.00    -0.267 OA
ATOM     10  N   UNL d   1     -23.395  23.889  21.941  0.00  0.00    -0.320 N 
ATOM     11  H   UNL d   1     -23.969  24.632  21.695  0.00  0.00     0.169 HD
BRANCH  10  12
ATOM     12  C   UNL d   1     -22.006  24.058  21.971  0.00  0.00     0.073 A 
ATOM     13  C   UNL d   1     -21.295  24.192  20.783  0.00  0.00     0.143 A 
ATOM     14  C   UNL d   1     -19.923  24.366  20.817  0.00  0.00     0.044 A 
ATOM     15  F   UNL d   1     -21.944  24.160  19.598  0.00  0.00    -0.204 F 
ATOM     16  C   UNL d   1     -19.258  24.392  22.030  0.00  0.00     0.003 A 
ATOM     17  C   UNL d   1     -19.963  24.253  23.211  0.00  0.00     0.002 A 
ATOM     18  C   UNL d   1     -21.334  24.085  23.185  0.00  0.00     0.033 A 
ENDBRANCH  10  12
ENDBRANCH   7   8
BRANCH   1  19
ATOM     19  O   UNL d   1     -25.517  24.049  24.164  0.00  0.00    -0.345 OA
BRANCH  19  20
ATOM     20  C   UNL d   1     -25.834  25.440  24.104  0.00  0.00     0.124 C 
ATOM     21  C   UNL d   1     -26.271  25.923  25.489  0.00  0.00     0.040 C 
BRANCH  20  22
ATOM     22  C   UNL d   1     -24.601  26.227  23.656  0.00  0.00     0.032 C 
BRANCH  22  23
ATOM     23  C   UNL d   1     -23.565  26.239  24.782  0.00  0.00    -0.002 C 
ATOM     24  C   UNL d   1     -22.412  27.172  24.406  0.00  0.00     0.005 C 
ENDBRANCH  22  23
ENDBRANCH  20  22
ENDBRANCH  19  20
ENDBRANCH   1  19
BRANCH   3  25
ATOM     25  N   UNL d   1     -29.547  22.111  22.463  0.00  0.00    -0.177 N 
ATOM     26  C   UNL d   1     -30.280  21.796  23.550  0.00  0.00     0.355 A 
ATOM     27  N   UNL d   1     -31.576  21.757  23.180  0.00  0.00    -0.256 N 
ATOM     28  O   UNL d   1     -29.848  21.584  24.669  0.00  0.00    -0.244 OA
ATOM     29  C   UNL d   1     -31.649  22.054  21.831  0.00  0.00     0.158 A 
ATOM     30  C   UNL d   1     -32.723  21.487  23.886  0.00  0.00     0.103 A 
ATOM     31  N   UNL d   1     -30.432  22.275  21.389  0.00  0.00    -0.144 NA
ATOM     32  C   UNL d   1     -32.911  22.079  21.189  0.00  0.00     0.053 A 
ATOM     33  C   UNL d   1     -34.028  21.810  21.908  0.00  0.00     0.005 A 
ATOM     34  C   UNL d   1     -33.923  21.510  23.281  0.00  0.00     0.018 A 
ENDBRANCH   3  25
TORSDOF 7
ENDMDL
