MODEL 1
REMARK VINA RESULT:     -10.8      0.000      0.000
REMARK  7 active torsions:
REMARK  status: ('A' for Active; 'I' for Inactive)
REMARK    1  A    between atoms: O_2  and  C_3 
REMARK    2  A    between atoms: C_7  and  N_8 
REMARK       I    between atoms: N_8  and  C_9 
REMARK    3  A    between atoms: C_9  and  C_11 
REMARK    4  A    between atoms: C_15  and  N_16 
REMARK    5  A    between atoms: C_27  and  O_28 
REMARK    6  A    between atoms: O_28  and  C_29 
REMARK    7  A    between atoms: C_29  and  C_31 
ROOT
ATOM      1  C   UNL d   1     -24.254  24.377  23.396  0.00  0.00     0.068 A 
ATOM      2  C   UNL d   1     -25.103  24.916  24.369  0.00  0.00     0.064 A 
ATOM      3  C   UNL d   1     -26.365  24.395  24.545  0.00  0.00     0.146 A 
ATOM      4  F   UNL d   1     -27.186  24.920  25.479  0.00  0.00    -0.204 F 
ATOM      5  C   UNL d   1     -26.800  23.330  23.756  0.00  0.00     0.104 A 
ATOM      6  C   UNL d   1     -25.964  22.789  22.789  0.00  0.00     0.073 A 
ATOM      7  C   UNL d   1     -24.694  23.305  22.604  0.00  0.00     0.087 A 
ENDROOT
BRANCH   1   8
ATOM      8  C   UNL d   1     -22.903  24.931  23.205  0.00  0.00     0.259 C 
ATOM      9  N   UNL d   1     -21.832  24.289  23.712  0.00  0.00    -0.321 N 
ATOM     10  H   UNL d   1     -21.946  23.431  24.152  0.00  0.00     0.169 HD
ATOM     11  O   UNL d   1     -22.754  25.970  22.589  0.00  0.00    -0.267 OA
BRANCH   9  12
ATOM     12  C   UNL d   1     -20.557  24.859  23.605  0.00  0.00     0.058 A 
ATOM     13  C   UNL d   1     -20.124  25.799  24.539  0.00  0.00    -0.030 A 
ATOM     14  C   UNL d   1     -18.856  26.332  24.396  0.00  0.00     0.067 A 
ATOM     15  C   UNL d   1     -21.014  26.218  25.680  0.00  0.00     0.050 C 
ATOM     16  C   UNL d   1     -18.067  25.926  23.328  0.00  0.00     0.164 A 
ATOM     17  N   UNL d   1     -18.511  25.035  22.458  0.00  0.00    -0.235 NA
ATOM     18  C   UNL d   1     -19.713  24.501  22.565  0.00  0.00     0.149 A 
BRANCH  16  19
ATOM     19  O   UNL d   1     -16.822  26.448  23.177  0.00  0.00    -0.339 OA
ATOM     20  C   UNL d   1     -15.907  25.718  22.358  0.00  0.00     0.211 C 
ENDBRANCH  16  19
ENDBRANCH   9  12
ENDBRANCH   1   8
BRANCH   7  21
ATOM     21  O   UNL d   1     -23.875  22.778  21.660  0.00  0.00    -0.336 OA
BRANCH  21  22
ATOM     22  C   UNL d   1     -23.931  23.360  20.355  0.00  0.00     0.232 C 
ATOM     23  C   UNL d   1     -22.520  23.756  19.913  0.00  0.00     0.049 C 
BRANCH  22  24
ATOM     24  C   UNL d   1     -24.508  22.344  19.367  0.00  0.00     0.413 C 
ATOM     25  F   UNL d   1     -25.784  21.956  19.791  0.00  0.00    -0.168 F 
ATOM     26  F   UNL d   1     -24.595  22.924  18.098  0.00  0.00    -0.168 F 
ATOM     27  F   UNL d   1     -23.674  21.222  19.311  0.00  0.00    -0.168 F 
ENDBRANCH  22  24
ENDBRANCH  21  22
ENDBRANCH   7  21
BRANCH   5  28
ATOM     28  N   UNL d   1     -28.081  22.806  23.940  0.00  0.00    -0.178 N 
ATOM     29  C   UNL d   1     -28.488  22.029  24.970  0.00  0.00     0.351 A 
ATOM     30  N   UNL d   1     -29.788  21.768  24.782  0.00  0.00    -0.280 N 
ATOM     31  O   UNL d   1     -27.800  21.640  25.896  0.00  0.00    -0.244 OA
ATOM     32  C   UNL d   1     -30.185  22.355  23.595  0.00  0.00     0.155 A 
ATOM     33  C   UNL d   1     -30.707  21.013  25.643  0.00  0.00     0.161 C 
ATOM     34  N   UNL d   1     -29.182  22.981  23.087  0.00  0.00    -0.147 NA
ATOM     35  C   UNL d   1     -31.588  22.226  23.049  0.00  0.00     0.248 C 
ATOM     36  O   UNL d   1     -32.430  21.775  24.120  0.00  0.00    -0.382 OA
ATOM     37  C   UNL d   1     -31.929  20.620  24.802  0.00  0.00     0.188 C 
ENDBRANCH   5  28
TORSDOF 7
ENDMDL
