MODEL 1
REMARK VINA RESULT:     -11.4      0.000      0.000
REMARK  8 active torsions:
REMARK  status: ('A' for Active; 'I' for Inactive)
REMARK    1  A    between atoms: C_2  and  C_3 
REMARK    2  A    between atoms: C_2  and  N_15 
REMARK    3  A    between atoms: C_6  and  C_7 
REMARK       I    between atoms: N_15  and  C_17 
REMARK    4  A    between atoms: C_17  and  C_19 
REMARK    5  A    between atoms: C_19  and  S_20 
REMARK    6  A    between atoms: S_20  and  C_21 
REMARK    7  A    between atoms: N_25  and  C_26 
REMARK    8  A    between atoms: C_29  and  O_30 
ROOT
ATOM      1  N   UNL d   1     -23.317  23.350  21.568  0.00  0.00    -0.347 N 
ATOM      2  C   UNL d   1     -22.913  22.784  22.857  0.00  0.00     0.153 C 
ATOM      3  C   UNL d   1     -24.228  22.710  20.808  0.00  0.00     0.229 C 
ATOM      4  O   UNL d   1     -24.561  23.179  19.740  0.00  0.00    -0.273 OA
ENDROOT
BRANCH   3   5
ATOM      5  C   UNL d   1     -24.831  21.415  21.284  0.00  0.00     0.185 C 
BRANCH   5   6
ATOM      6  S   UNL d   1     -26.636  21.517  21.185  0.00  0.00    -0.079 SA
BRANCH   6   7
ATOM      7  C   UNL d   1     -26.983  22.292  22.728  0.00  0.00     0.214 A 
ATOM      8  N   UNL d   1     -28.208  22.635  23.201  0.00  0.00    -0.188 N 
ATOM      9  N   UNL d   1     -27.968  23.216  24.459  0.00  0.00    -0.038 NA
ATOM     10  N   UNL d   1     -26.693  23.186  24.647  0.00  0.00    -0.022 NA
ATOM     11  N   UNL d   1     -26.105  22.642  23.643  0.00  0.00    -0.101 NA
BRANCH   8  12
ATOM     12  C   UNL d   1     -29.448  22.449  22.571  0.00  0.00     0.063 A 
ATOM     13  C   UNL d   1     -30.595  22.273  23.332  0.00  0.00     0.034 A 
ATOM     14  C   UNL d   1     -31.815  22.090  22.711  0.00  0.00     0.039 A 
ATOM     15  C   UNL d   1     -31.894  22.082  21.326  0.00  0.00     0.065 A 
ATOM     16  C   UNL d   1     -30.748  22.259  20.565  0.00  0.00     0.039 A 
ATOM     17  C   UNL d   1     -29.528  22.446  21.185  0.00  0.00     0.034 A 
BRANCH  15  18
ATOM     18  O   UNL d   1     -33.095  21.904  20.715  0.00  0.00    -0.361 OA
ATOM     19  H   UNL d   1     -33.288  20.985  20.488  0.00  0.00     0.217 HD
ENDBRANCH  15  18
ENDBRANCH   8  12
ENDBRANCH   6   7
ENDBRANCH   5   6
ENDBRANCH   3   5
BRANCH   1  20
ATOM     20  C   UNL d   1     -22.730  24.609  21.105  0.00  0.00     0.115 C 
ATOM     21  C   UNL d   1     -21.550  24.312  20.178  0.00  0.00     0.037 C 
BRANCH  20  22
ATOM     22  C   UNL d   1     -22.250  25.405  22.291  0.00  0.00    -0.036 A 
ATOM     23  C   UNL d   1     -23.143  26.179  23.010  0.00  0.00     0.010 A 
ATOM     24  C   UNL d   1     -22.710  26.905  24.101  0.00  0.00     0.013 A 
ATOM     25  C   UNL d   1     -21.368  26.867  24.470  0.00  0.00    -0.026 A 
ATOM     26  C   UNL d   1     -20.471  26.086  23.743  0.00  0.00     0.013 A 
ATOM     27  C   UNL d   1     -20.917  25.360  22.656  0.00  0.00     0.010 A 
BRANCH  25  28
ATOM     28  C   UNL d   1     -20.895  27.650  25.639  0.00  0.00    -0.026 A 
ATOM     29  C   UNL d   1     -19.556  27.597  26.021  0.00  0.00     0.012 A 
ATOM     30  C   UNL d   1     -19.120  28.331  27.105  0.00  0.00     0.001 A 
ATOM     31  C   UNL d   1     -20.011  29.118  27.813  0.00  0.00     0.000 A 
ATOM     32  C   UNL d   1     -21.341  29.174  27.439  0.00  0.00     0.001 A 
ATOM     33  C   UNL d   1     -21.788  28.444  26.357  0.00  0.00     0.012 A 
ENDBRANCH  25  28
ENDBRANCH  20  22
ENDBRANCH   1  20
TORSDOF 8
ENDMDL
