MODEL 1
REMARK VINA RESULT:     -10.4      0.000      0.000
REMARK  6 active torsions:
REMARK  status: ('A' for Active; 'I' for Inactive)
REMARK    1  A    between atoms: C_2  and  C_4 
REMARK    2  A    between atoms: N_6  and  C_7 
REMARK    3  A    between atoms: C_21  and  N_22 
REMARK    4  A    between atoms: C_24  and  C_25 
REMARK    5  A    between atoms: C_25  and  O_26 
REMARK    6  A    between atoms: N_27  and  C_28 
ROOT
ATOM      1  C   UNL d   1     -25.831  24.003  23.777  0.00  0.00    -0.004 A 
ATOM      2  C   UNL d   1     -24.534  24.191  23.423  0.00  0.00     0.113 A 
ATOM      3  N   UNL d   1     -23.993  23.603  22.318  0.00  0.00    -0.285 N 
ATOM      4  C   UNL d   1     -24.705  22.803  21.502  0.00  0.00     0.263 A 
ATOM      5  O   UNL d   1     -24.181  22.303  20.522  0.00  0.00    -0.267 OA
ATOM      6  C   UNL d   1     -26.114  22.533  21.803  0.00  0.00     0.047 A 
ATOM      7  C   UNL d   1     -26.894  21.705  20.992  0.00  0.00     0.062 A 
ATOM      8  C   UNL d   1     -28.205  21.486  21.310  0.00  0.00     0.146 A 
ATOM      9  F   UNL d   1     -28.957  20.685  20.525  0.00  0.00    -0.204 F 
ATOM     10  C   UNL d   1     -28.775  22.081  22.438  0.00  0.00     0.103 A 
ATOM     11  C   UNL d   1     -28.020  22.904  23.258  0.00  0.00     0.048 A 
ATOM     12  C   UNL d   1     -26.684  23.137  22.946  0.00  0.00    -0.006 A 
ENDROOT
BRANCH  10  13
ATOM     13  N   UNL d   1     -30.118  21.844  22.743  0.00  0.00    -0.178 N 
ATOM     14  C   UNL d   1     -31.172  22.034  21.921  0.00  0.00     0.351 A 
ATOM     15  N   UNL d   1     -32.282  21.684  22.600  0.00  0.00    -0.283 N 
ATOM     16  O   UNL d   1     -31.127  22.445  20.775  0.00  0.00    -0.244 OA
ATOM     17  C   UNL d   1     -31.910  21.281  23.859  0.00  0.00     0.154 A 
ATOM     18  N   UNL d   1     -30.623  21.370  23.962  0.00  0.00    -0.147 NA
BRANCH  15  19
ATOM     19  C   UNL d   1     -33.653  21.730  22.084  0.00  0.00     0.131 C 
ATOM     20  C   UNL d   1     -34.014  20.376  21.472  0.00  0.00     0.027 C 
ENDBRANCH  15  19
BRANCH  17  21
ATOM     21  C   UNL d   1     -32.846  20.812  24.943  0.00  0.00     0.244 C 
BRANCH  21  22
ATOM     22  O   UNL d   1     -32.188  20.892  26.208  0.00  0.00    -0.393 OA
ATOM     23  H   UNL d   1     -32.387  20.155  26.802  0.00  0.00     0.209 HD
ENDBRANCH  21  22
ENDBRANCH  17  21
ENDBRANCH  10  13
BRANCH   1  24
ATOM     24  C   UNL d   1     -26.379  24.658  24.981  0.00  0.00    -0.059 C 
ATOM     25  C   UNL d   1     -26.266  25.972  25.131  0.00  0.00     0.019 C 
ATOM     26  C   UNL d   1     -27.065  23.835  26.041  0.00  0.00     0.048 C 
ENDBRANCH   1  24
BRANCH   3  27
ATOM     27  C   UNL d   1     -22.646  23.846  22.016  0.00  0.00     0.083 A 
ATOM     28  C   UNL d   1     -21.645  23.324  22.828  0.00  0.00     0.143 A 
ATOM     29  C   UNL d   1     -20.317  23.570  22.531  0.00  0.00     0.047 A 
ATOM     30  F   UNL d   1     -21.969  22.582  23.909  0.00  0.00    -0.204 F 
ATOM     31  C   UNL d   1     -19.984  24.325  21.422  0.00  0.00     0.045 A 
ATOM     32  C   UNL d   1     -20.978  24.847  20.611  0.00  0.00     0.118 A 
ATOM     33  C   UNL d   1     -22.308  24.609  20.907  0.00  0.00     0.075 A 
ATOM     34  F   UNL d   1     -20.649  25.588  19.531  0.00  0.00    -0.206 F 
ENDBRANCH   3  27
TORSDOF 6
ENDMDL
