MODEL 1
REMARK VINA RESULT:     -11.2      0.000      0.000
REMARK  3 active torsions:
REMARK  status: ('A' for Active; 'I' for Inactive)
REMARK    1  A    between atoms: C_2  and  C_4 
REMARK    2  A    between atoms: N_11  and  C_12 
REMARK    3  A    between atoms: C_16  and  C_17 
ROOT
ATOM      1  C   UNL d   1     -26.857  22.615  24.050  0.00  0.00     0.066 A 
ATOM      2  C   UNL d   1     -26.298  21.764  23.105  0.00  0.00     0.075 A 
ATOM      3  C   UNL d   1     -25.181  22.158  22.394  0.00  0.00     0.132 A 
ATOM      4  F   UNL d   1     -24.642  21.332  21.471  0.00  0.00    -0.205 F 
ATOM      5  C   UNL d   1     -24.608  23.408  22.634  0.00  0.00     0.054 A 
ATOM      6  C   UNL d   1     -25.170  24.257  23.589  0.00  0.00     0.132 A 
ATOM      7  F   UNL d   1     -24.617  25.467  23.825  0.00  0.00    -0.205 F 
ATOM      8  C   UNL d   1     -26.290  23.859  24.291  0.00  0.00     0.075 A 
ENDROOT
BRANCH   1   9
ATOM      9  N   UNL d   1     -27.994  22.215  24.766  0.00  0.00    -0.217 N 
ATOM     10  N   UNL d   1     -28.033  21.784  26.103  0.00  0.00    -0.060 NA
ATOM     11  N   UNL d   1     -29.255  21.501  26.414  0.00  0.00    -0.126 NA
ATOM     12  C   UNL d   1     -30.040  21.722  25.359  0.00  0.00     0.151 A 
ATOM     13  C   UNL d   1     -31.497  21.558  25.202  0.00  0.00     0.182 C 
ATOM     14  C   UNL d   1     -29.252  22.176  24.310  0.00  0.00     0.073 A 
ATOM     15  C   UNL d   1     -32.086  22.171  23.941  0.00  0.00     0.091 C 
ATOM     16  O   UNL d   1     -32.177  20.975  26.020  0.00  0.00    -0.291 OA
ATOM     17  C   UNL d   1     -31.160  21.849  22.765  0.00  0.00     0.002 C 
ATOM     18  C   UNL d   1     -29.798  22.526  22.952  0.00  0.00     0.067 C 
BRANCH  17  19
ATOM     19  C   UNL d   1     -31.797  22.350  21.467  0.00  0.00    -0.018 C 
ATOM     20  C   UNL d   1     -30.808  22.177  20.313  0.00  0.00     0.010 C 
ATOM     21  C   UNL d   1     -33.065  21.544  21.178  0.00  0.00     0.010 C 
ENDBRANCH  17  19
ENDBRANCH   1   9
BRANCH   5  22
ATOM     22  C   UNL d   1     -23.405  23.832  21.877  0.00  0.00     0.019 A 
ATOM     23  C   UNL d   1     -22.140  23.721  22.454  0.00  0.00     0.127 A 
ATOM     24  C   UNL d   1     -21.023  24.118  21.744  0.00  0.00     0.043 A 
ATOM     25  F   UNL d   1     -22.006  23.225  23.704  0.00  0.00    -0.205 F 
ATOM     26  C   UNL d   1     -21.158  24.625  20.464  0.00  0.00     0.003 A 
ATOM     27  C   UNL d   1     -22.412  24.737  19.888  0.00  0.00     0.001 A 
ATOM     28  C   UNL d   1     -23.534  24.338  20.585  0.00  0.00     0.015 A 
ENDBRANCH   5  22
TORSDOF 3
ENDMDL
