MODEL 1
REMARK VINA RESULT:     -10.3      0.000      0.000
REMARK  6 active torsions:
REMARK  status: ('A' for Active; 'I' for Inactive)
REMARK    1  A    between atoms: C_2  and  O_3 
REMARK    2  A    between atoms: C_2  and  C_4 
REMARK    3  A    between atoms: C_9  and  C_10 
REMARK    4  A    between atoms: N_11  and  N_12 
REMARK    5  A    between atoms: N_12  and  C_13 
REMARK    6  A    between atoms: C_15  and  C_16 
ROOT
ATOM      1  N   UNL d   1     -27.877  22.474  23.697  0.00  0.00    -0.255 N 
ATOM      2  H   UNL d   1     -27.765  23.000  24.504  0.00  0.00     0.191 HD
ENDROOT
BRANCH   1   3
ATOM      3  N   UNL d   1     -29.103  21.853  23.430  0.00  0.00    -0.184 NA
ATOM      4  C   UNL d   1     -30.200  22.552  23.432  0.00  0.00     0.151 C 
BRANCH   4   5
ATOM      5  C   UNL d   1     -31.488  21.900  23.151  0.00  0.00    -0.000 A 
ATOM      6  C   UNL d   1     -32.123  21.124  24.144  0.00  0.00     0.049 A 
ATOM      7  C   UNL d   1     -33.348  20.517  23.863  0.00  0.00     0.019 A 
ATOM      8  C   UNL d   1     -33.926  20.673  22.620  0.00  0.00     0.001 A 
ATOM      9  C   UNL d   1     -33.299  21.430  21.643  0.00  0.00     0.001 A 
ATOM     10  C   UNL d   1     -32.089  22.040  21.898  0.00  0.00     0.014 A 
BRANCH   6  11
ATOM     11  C   UNL d   1     -31.501  20.961  25.469  0.00  0.00     0.177 C 
ATOM     12  O   UNL d   1     -31.808  21.704  26.380  0.00  0.00    -0.646 OA
BRANCH  11  13
ATOM     13  O   UNL d   1     -30.592  19.987  25.671  0.00  0.00    -0.773 OA
ATOM     14  H   UNL d   1     -30.909  19.166  26.074  0.00  0.00     0.167 HD
ENDBRANCH  11  13
ENDBRANCH   6  11
ENDBRANCH   4   5
ENDBRANCH   1   3
BRANCH   1  15
ATOM     15  C   UNL d   1     -26.824  22.337  22.808  0.00  0.00     0.187 A 
ATOM     16  S   UNL d   1     -26.854  21.375  21.334  0.00  0.00    -0.060 SA
ATOM     17  C   UNL d   1     -25.190  21.844  20.992  0.00  0.00     0.085 A 
ATOM     18  C   UNL d   1     -24.768  22.650  21.984  0.00  0.00     0.076 A 
ATOM     19  N   UNL d   1     -25.658  22.894  22.935  0.00  0.00    -0.222 NA
BRANCH  18  20
ATOM     20  C   UNL d   1     -23.401  23.224  22.010  0.00  0.00    -0.007 A 
ATOM     21  C   UNL d   1     -22.593  23.057  23.134  0.00  0.00     0.014 A 
ATOM     22  C   UNL d   1     -21.322  23.594  23.152  0.00  0.00     0.001 A 
ATOM     23  C   UNL d   1     -20.849  24.295  22.058  0.00  0.00     0.000 A 
ATOM     24  C   UNL d   1     -21.645  24.464  20.940  0.00  0.00     0.001 A 
ATOM     25  C   UNL d   1     -22.916  23.928  20.908  0.00  0.00     0.014 A 
ENDBRANCH  18  20
ENDBRANCH   1  15
TORSDOF 6
ENDMDL
