MODEL 1
REMARK VINA RESULT:     -10.4      0.000      0.000
REMARK  8 active torsions:
REMARK  status: ('A' for Active; 'I' for Inactive)
REMARK    1  A    between atoms: C_2  and  C_3 
REMARK    2  A    between atoms: C_3  and  C_4 
REMARK    3  A    between atoms: C_4  and  O_6 
REMARK    4  A    between atoms: O_6  and  C_7 
REMARK    5  A    between atoms: C_9  and  N_10 
REMARK    6  A    between atoms: C_23  and  C_24 
REMARK       I    between atoms: C_24  and  N_26 
REMARK    7  A    between atoms: N_26  and  C_27 
REMARK    8  A    between atoms: C_32  and  N_33 
ROOT
ATOM      1  C   UNL d   1     -26.160  23.194  23.264  0.00  0.00     0.087 A 
ATOM      2  C   UNL d   1     -27.535  23.043  23.336  0.00  0.00     0.073 A 
ATOM      3  C   UNL d   1     -28.192  22.214  22.438  0.00  0.00     0.104 A 
ATOM      4  C   UNL d   1     -27.474  21.541  21.450  0.00  0.00     0.146 A 
ATOM      5  F   UNL d   1     -28.121  20.740  20.574  0.00  0.00    -0.204 F 
ATOM      6  C   UNL d   1     -26.108  21.689  21.364  0.00  0.00     0.064 A 
ATOM      7  C   UNL d   1     -25.437  22.518  22.270  0.00  0.00     0.068 A 
ENDROOT
BRANCH   7   8
ATOM      8  C   UNL d   1     -23.976  22.679  22.182  0.00  0.00     0.259 C 
ATOM      9  O   UNL d   1     -23.244  21.739  22.427  0.00  0.00    -0.267 OA
ATOM     10  N   UNL d   1     -23.450  23.869  21.831  0.00  0.00    -0.321 N 
ATOM     11  H   UNL d   1     -24.033  24.602  21.578  0.00  0.00     0.169 HD
BRANCH  10  12
ATOM     12  C   UNL d   1     -22.060  24.048  21.830  0.00  0.00     0.061 A 
ATOM     13  C   UNL d   1     -21.401  24.399  20.651  0.00  0.00     0.052 A 
ATOM     14  C   UNL d   1     -20.024  24.574  20.657  0.00  0.00     0.031 A 
ATOM     15  C   UNL d   1     -19.311  24.402  21.829  0.00  0.00     0.002 A 
ATOM     16  C   UNL d   1     -19.965  24.053  22.996  0.00  0.00     0.002 A 
ATOM     17  C   UNL d   1     -21.336  23.881  23.001  0.00  0.00     0.032 A 
BRANCH  13  18
ATOM     18  N   UNL d   1     -22.125  24.572  19.467  0.00  0.00    -0.397 N 
ATOM     19  H   UNL d   1     -22.839  23.956  19.241  0.00  0.00     0.156 HD
ATOM     20  H   UNL d   1     -21.914  25.310  18.873  0.00  0.00     0.156 HD
ENDBRANCH  13  18
ENDBRANCH  10  12
ENDBRANCH   7   8
BRANCH   1  21
ATOM     21  O   UNL d   1     -25.517  23.999  24.145  0.00  0.00    -0.345 OA
BRANCH  21  22
ATOM     22  C   UNL d   1     -25.826  25.393  24.096  0.00  0.00     0.124 C 
ATOM     23  C   UNL d   1     -26.262  25.869  25.484  0.00  0.00     0.040 C 
BRANCH  22  24
ATOM     24  C   UNL d   1     -24.587  26.175  23.654  0.00  0.00     0.032 C 
BRANCH  24  25
ATOM     25  C   UNL d   1     -23.557  26.179  24.785  0.00  0.00    -0.002 C 
ATOM     26  C   UNL d   1     -22.358  27.040  24.380  0.00  0.00     0.005 C 
ENDBRANCH  24  25
ENDBRANCH  22  24
ENDBRANCH  21  22
ENDBRANCH   1  21
BRANCH   3  27
ATOM     27  N   UNL d   1     -29.578  22.060  22.518  0.00  0.00    -0.178 N 
ATOM     28  C   UNL d   1     -30.283  21.720  23.619  0.00  0.00     0.351 A 
ATOM     29  N   UNL d   1     -31.582  21.709  23.275  0.00  0.00    -0.284 N 
ATOM     30  O   UNL d   1     -29.825  21.470  24.720  0.00  0.00    -0.244 OA
ATOM     31  C   UNL d   1     -31.677  22.006  21.931  0.00  0.00     0.131 A 
ATOM     32  C   UNL d   1     -32.733  21.453  24.148  0.00  0.00     0.135 C 
ATOM     33  N   UNL d   1     -30.494  22.224  21.468  0.00  0.00    -0.149 NA
ATOM     34  C   UNL d   1     -32.984  22.050  21.173  0.00  0.00     0.081 C 
ATOM     35  C   UNL d   1     -34.123  22.169  22.196  0.00  0.00     0.009 C 
ATOM     36  C   UNL d   1     -33.940  21.095  23.273  0.00  0.00     0.021 C 
ENDBRANCH   3  27
TORSDOF 8
ENDMDL
