MODEL 1
REMARK VINA RESULT:     -10.4      0.000      0.000
REMARK  5 active torsions:
REMARK  status: ('A' for Active; 'I' for Inactive)
REMARK    1  A    between atoms: C_5  and  N_6 
REMARK    2  A    between atoms: N_6  and  C_7 
REMARK    3  A    between atoms: C_18  and  C_19 
REMARK    4  A    between atoms: C_19  and  N_20 
REMARK       I    between atoms: N_23  and  C_24 
REMARK    5  A    between atoms: C_24  and  C_26 
ROOT
ATOM      1  C   UNL d   1     -20.117  24.092  21.521  0.00  0.00     0.049 C 
ATOM      2  C   UNL d   1     -20.101  24.987  22.733  0.00  0.00    -0.053 A 
ATOM      3  C   UNL d   1     -18.960  25.076  23.510  0.00  0.00     0.009 A 
ATOM      4  C   UNL d   1     -18.944  25.892  24.624  0.00  0.00     0.030 A 
ATOM      5  C   UNL d   1     -20.073  26.627  24.962  0.00  0.00     0.040 A 
ATOM      6  C   UNL d   1     -21.215  26.539  24.177  0.00  0.00    -0.027 A 
ATOM      7  C   UNL d   1     -22.443  27.335  24.538  0.00  0.00     0.051 C 
ATOM      8  C   UNL d   1     -21.225  25.722  23.064  0.00  0.00    -0.016 A 
ENDROOT
BRANCH   8   9
ATOM      9  C   UNL d   1     -22.465  25.625  22.211  0.00  0.00     0.312 C 
BRANCH   9  10
ATOM     10  N   UNL d   1     -23.305  24.522  22.693  0.00  0.00     0.095 N 
ATOM     11  C   UNL d   1     -23.563  23.550  21.623  0.00  0.00     0.292 C 
ATOM     12  C   UNL d   1     -24.286  22.331  22.207  0.00  0.00     0.156 C 
ATOM     13  N   UNL d   1     -25.481  22.797  22.925  0.00  0.00    -0.348 N 
ATOM     14  C   UNL d   1     -25.323  23.870  23.918  0.00  0.00     0.156 C 
ATOM     15  C   UNL d   1     -26.691  22.254  22.679  0.00  0.00     0.224 C 
ATOM     16  C   UNL d   1     -24.560  25.027  23.267  0.00  0.00     0.292 C 
ATOM     17  O   UNL d   1     -26.803  21.370  21.856  0.00  0.00    -0.273 OA
BRANCH  15  18
ATOM     18  C   UNL d   1     -27.903  22.747  23.427  0.00  0.00     0.078 C 
ATOM     19  C   UNL d   1     -29.069  22.974  22.448  0.00  0.00     0.014 C 
ATOM     20  C   UNL d   1     -30.208  22.034  22.895  0.00  0.00     0.001 C 
ATOM     21  C   UNL d   1     -29.920  21.773  24.394  0.00  0.00     0.001 C 
ATOM     22  C   UNL d   1     -28.374  21.677  24.434  0.00  0.00     0.014 C 
ENDBRANCH  15  18
ENDBRANCH   9  10
ENDBRANCH   8   9
BRANCH   5  23
ATOM     23  N   UNL d   1     -20.060  27.453  26.089  0.00  0.00    -0.335 N 
ATOM     24  H   UNL d   1     -20.287  28.392  26.005  0.00  0.00     0.168 HD
BRANCH  23  25
ATOM     25  C   UNL d   1     -19.723  26.932  27.323  0.00  0.00     0.172 A 
ATOM     26  S   UNL d   1     -18.134  27.054  28.065  0.00  0.00    -0.050 SA
ATOM     27  C   UNL d   1     -18.707  26.162  29.472  0.00  0.00     0.037 A 
ATOM     28  C   UNL d   1     -20.052  25.833  29.270  0.00  0.00     0.076 A 
ATOM     29  C   UNL d   1     -18.056  25.774  30.640  0.00  0.00     0.021 A 
ATOM     30  N   UNL d   1     -20.529  26.281  28.092  0.00  0.00    -0.223 NA
ATOM     31  C   UNL d   1     -20.723  25.105  30.276  0.00  0.00     0.033 A 
ATOM     32  C   UNL d   1     -20.065  24.733  31.421  0.00  0.00     0.002 A 
ATOM     33  C   UNL d   1     -18.731  25.064  31.608  0.00  0.00     0.002 A 
ENDBRANCH  23  25
ENDBRANCH   5  23
TORSDOF 5
ENDMDL
