MODEL 1
REMARK VINA RESULT:     -11.6      0.000      0.000
REMARK  4 active torsions:
REMARK  status: ('A' for Active; 'I' for Inactive)
REMARK    1  A    between atoms: C_3  and  C_4 
REMARK    2  A    between atoms: C_7  and  C_8 
REMARK    3  A    between atoms: C_23  and  C_24 
REMARK    4  A    between atoms: C_24  and  O_26 
ROOT
ATOM      1  C   UNL d   1     -27.891  21.842  25.561  0.00  0.00     0.052 C 
ATOM      2  C   UNL d   1     -28.824  21.941  24.381  0.00  0.00    -0.015 A 
ATOM      3  C   UNL d   1     -28.345  22.374  23.134  0.00  0.00     0.074 A 
ATOM      4  N   UNL d   1     -29.123  22.470  22.076  0.00  0.00    -0.247 NA
ATOM      5  C   UNL d   1     -30.419  22.167  22.120  0.00  0.00     0.071 A 
ATOM      6  C   UNL d   1     -31.249  22.271  20.986  0.00  0.00     0.052 A 
ATOM      7  C   UNL d   1     -32.565  21.944  21.107  0.00  0.00     0.118 A 
ATOM      8  N   UNL d   1     -33.085  21.534  22.255  0.00  0.00    -0.272 NA
ATOM      9  C   UNL d   1     -32.371  21.413  23.352  0.00  0.00     0.131 A 
ATOM     10  C   UNL d   1     -31.008  21.724  23.333  0.00  0.00     0.028 A 
ATOM     11  C   UNL d   1     -30.164  21.609  24.520  0.00  0.00     0.059 A 
ENDROOT
BRANCH   3  12
ATOM     12  C   UNL d   1     -26.913  22.730  23.003  0.00  0.00    -0.007 A 
ATOM     13  C   UNL d   1     -26.078  21.971  22.180  0.00  0.00     0.014 A 
ATOM     14  C   UNL d   1     -24.748  22.306  22.055  0.00  0.00     0.013 A 
ATOM     15  C   UNL d   1     -24.232  23.394  22.758  0.00  0.00    -0.026 A 
ATOM     16  C   UNL d   1     -25.066  24.152  23.580  0.00  0.00     0.013 A 
ATOM     17  C   UNL d   1     -26.398  23.822  23.702  0.00  0.00     0.014 A 
BRANCH  15  18
ATOM     18  C   UNL d   1     -22.799  23.751  22.627  0.00  0.00    -0.026 A 
ATOM     19  C   UNL d   1     -21.946  23.632  23.723  0.00  0.00     0.012 A 
ATOM     20  C   UNL d   1     -20.612  23.966  23.595  0.00  0.00     0.001 A 
ATOM     21  C   UNL d   1     -20.123  24.418  22.382  0.00  0.00     0.000 A 
ATOM     22  C   UNL d   1     -20.965  24.538  21.292  0.00  0.00     0.001 A 
ATOM     23  C   UNL d   1     -22.299  24.202  21.407  0.00  0.00     0.012 A 
ENDBRANCH  15  18
ENDBRANCH   3  12
BRANCH  11  24
ATOM     24  C   UNL d   1     -30.715  21.153  25.815  0.00  0.00     0.177 C 
ATOM     25  O   UNL d   1     -31.334  21.928  26.518  0.00  0.00    -0.646 OA
BRANCH  24  26
ATOM     26  O   UNL d   1     -30.533  19.879  26.214  0.00  0.00    -0.773 OA
ATOM     27  H   UNL d   1     -30.654  19.693  27.155  0.00  0.00     0.167 HD
ENDBRANCH  24  26
ENDBRANCH  11  24
TORSDOF 4
ENDMDL
