MODEL 1
REMARK VINA RESULT:     -10.5      0.000      0.000
REMARK  3 active torsions:
REMARK  status: ('A' for Active; 'I' for Inactive)
REMARK       I    between atoms: C_2  and  N_3 
REMARK    1  A    between atoms: C_2  and  C_20 
REMARK    2  A    between atoms: N_3  and  C_4 
REMARK    3  A    between atoms: N_12  and  C_13 
ROOT
ATOM      1  C   UNL d   1     -26.099  22.233  22.654  0.00  0.00     0.121 C 
ATOM      2  C   UNL d   1     -26.444  22.338  21.163  0.00  0.00     0.030 C 
ATOM      3  C   UNL d   1     -27.469  21.260  20.800  0.00  0.00     0.008 C 
ATOM      4  C   UNL d   1     -28.822  21.604  21.434  0.00  0.00     0.060 C 
ATOM      5  C   UNL d   1     -28.598  21.907  22.895  0.00  0.00     0.046 A 
ATOM      6  C   UNL d   1     -27.386  22.184  23.438  0.00  0.00     0.008 A 
ATOM      7  C   UNL d   1     -27.567  22.404  24.802  0.00  0.00     0.150 A 
ATOM      8  N   UNL d   1     -28.841  22.266  25.073  0.00  0.00    -0.179 NA
ATOM      9  N   UNL d   1     -29.512  21.952  23.882  0.00  0.00    -0.235 N 
ENDROOT
BRANCH   1  10
ATOM     10  N   UNL d   1     -25.317  23.403  23.062  0.00  0.00    -0.347 N 
ATOM     11  C   UNL d   1     -23.970  23.353  23.043  0.00  0.00     0.270 C 
ATOM     12  O   UNL d   1     -23.405  22.338  22.687  0.00  0.00    -0.266 OA
ATOM     13  H   UNL d   1     -25.768  24.213  23.346  0.00  0.00     0.163 HD
BRANCH  11  14
ATOM     14  C   UNL d   1     -23.179  24.536  23.455  0.00  0.00     0.123 A 
ATOM     15  N   UNL d   1     -21.937  24.376  23.896  0.00  0.00    -0.256 NA
ATOM     16  C   UNL d   1     -21.199  25.399  24.267  0.00  0.00     0.117 A 
ATOM     17  C   UNL d   1     -21.700  26.691  24.222  0.00  0.00     0.019 A 
ATOM     18  C   UNL d   1     -22.995  26.902  23.775  0.00  0.00     0.004 A 
ATOM     19  C   UNL d   1     -23.746  25.805  23.384  0.00  0.00     0.037 A 
ENDBRANCH  11  14
ENDBRANCH   1  10
BRANCH   9  20
ATOM     20  C   UNL d   1     -30.890  21.726  23.743  0.00  0.00     0.097 A 
ATOM     21  C   UNL d   1     -31.533  20.813  24.571  0.00  0.00     0.145 A 
ATOM     22  C   UNL d   1     -32.892  20.595  24.435  0.00  0.00     0.045 A 
ATOM     23  F   UNL d   1     -30.831  20.141  25.510  0.00  0.00    -0.204 F 
ATOM     24  C   UNL d   1     -33.608  21.280  23.470  0.00  0.00     0.003 A 
ATOM     25  C   UNL d   1     -32.970  22.185  22.643  0.00  0.00     0.002 A 
ATOM     26  C   UNL d   1     -31.614  22.409  22.776  0.00  0.00     0.035 A 
ENDBRANCH   9  20
TORSDOF 3
ENDMDL
