MODEL 1
REMARK VINA RESULT:     -10.3      0.000      0.000
REMARK  5 active torsions:
REMARK  status: ('A' for Active; 'I' for Inactive)
REMARK    1  A    between atoms: C_3  and  C_4 
REMARK    2  A    between atoms: C_3  and  C_19 
REMARK       I    between atoms: C_4  and  N_6 
REMARK    3  A    between atoms: N_6  and  C_7 
REMARK    4  A    between atoms: C_10  and  C_11 
REMARK    5  A    between atoms: C_19  and  C_21 
ROOT
ATOM      1  N   UNL d   1     -31.529  18.081  26.215  0.00  0.00    -0.196 NA
ATOM      2  C   UNL d   1     -31.898  19.133  25.994  0.00  0.00     0.081 C 
ATOM      3  C   UNL d   1     -32.377  20.495  25.710  0.00  0.00     0.254 C 
ENDROOT
BRANCH   3   4
ATOM      4  C   UNL d   1     -31.225  21.344  25.235  0.00  0.00     0.247 C 
ATOM      5  O   UNL d   1     -31.398  22.519  24.991  0.00  0.00    -0.271 OA
ATOM      6  N   UNL d   1     -30.003  20.796  25.082  0.00  0.00    -0.326 N 
ATOM      7  H   UNL d   1     -29.881  19.842  25.201  0.00  0.00     0.169 HD
BRANCH   6   8
ATOM      8  C   UNL d   1     -28.912  21.604  24.747  0.00  0.00     0.034 A 
ATOM      9  C   UNL d   1     -28.059  22.064  25.742  0.00  0.00     0.030 A 
ATOM     10  C   UNL d   1     -26.979  22.857  25.414  0.00  0.00     0.014 A 
ATOM     11  C   UNL d   1     -26.751  23.206  24.084  0.00  0.00    -0.026 A 
ATOM     12  C   UNL d   1     -27.608  22.742  23.088  0.00  0.00     0.014 A 
ATOM     13  C   UNL d   1     -28.683  21.946  23.420  0.00  0.00     0.030 A 
BRANCH  11  14
ATOM     14  C   UNL d   1     -25.593  24.062  23.728  0.00  0.00    -0.026 A 
ATOM     15  C   UNL d   1     -24.518  23.527  23.022  0.00  0.00     0.012 A 
ATOM     16  C   UNL d   1     -23.446  24.330  22.689  0.00  0.00     0.001 A 
ATOM     17  C   UNL d   1     -23.433  25.661  23.064  0.00  0.00     0.000 A 
ATOM     18  C   UNL d   1     -24.498  26.199  23.764  0.00  0.00     0.001 A 
ATOM     19  C   UNL d   1     -25.578  25.407  24.098  0.00  0.00     0.012 A 
ENDBRANCH  11  14
ENDBRANCH   6   8
ENDBRANCH   3   4
BRANCH   3  20
ATOM     20  C   UNL d   1     -33.435  20.442  24.638  0.00  0.00     0.157 C 
ATOM     21  O   UNL d   1     -34.590  20.253  24.937  0.00  0.00    -0.296 OA
BRANCH  20  22
ATOM     22  C   UNL d   1     -33.052  20.628  23.192  0.00  0.00     0.057 A 
ATOM     23  C   UNL d   1     -34.081  20.227  22.132  0.00  0.00     0.013 A 
ATOM     24  C   UNL d   1     -33.790  21.707  22.398  0.00  0.00     0.013 A 
ENDBRANCH  20  22
ENDBRANCH   3  20
TORSDOF 5
ENDMDL
