MODEL 1
REMARK VINA RESULT:     -12.9      0.000      0.000
REMARK  5 active torsions:
REMARK  status: ('A' for Active; 'I' for Inactive)
REMARK    1  A    between atoms: C_3  and  C_4 
REMARK    2  A    between atoms: C_7  and  C_8 
REMARK    3  A    between atoms: C_21  and  C_22 
REMARK    4  A    between atoms: C_28  and  C_29 
REMARK    5  A    between atoms: C_29  and  O_31 
ROOT
ATOM      1  C   UNL d   1     -27.577  22.130  25.698  0.00  0.00     0.052 C 
ATOM      2  C   UNL d   1     -28.455  22.185  24.474  0.00  0.00    -0.015 A 
ATOM      3  C   UNL d   1     -27.943  22.654  23.254  0.00  0.00     0.074 A 
ATOM      4  N   UNL d   1     -28.671  22.714  22.159  0.00  0.00    -0.245 NA
ATOM      5  C   UNL d   1     -29.949  22.337  22.136  0.00  0.00     0.086 A 
ATOM      6  C   UNL d   1     -30.722  22.405  20.961  0.00  0.00     0.149 A 
ATOM      7  N   UNL d   1     -31.978  22.025  20.980  0.00  0.00    -0.254 NA
ATOM      8  C   UNL d   1     -32.574  21.569  22.073  0.00  0.00     0.141 A 
ATOM      9  C   UNL d   1     -31.912  21.465  23.261  0.00  0.00     0.051 A 
ATOM     10  C   UNL d   1     -30.568  21.852  23.317  0.00  0.00     0.014 A 
ATOM     11  C   UNL d   1     -29.780  21.776  24.545  0.00  0.00     0.058 A 
ENDROOT
BRANCH   3  12
ATOM     12  C   UNL d   1     -26.528  23.092  23.195  0.00  0.00    -0.007 A 
ATOM     13  C   UNL d   1     -26.148  24.303  23.774  0.00  0.00     0.014 A 
ATOM     14  C   UNL d   1     -24.833  24.708  23.723  0.00  0.00     0.013 A 
ATOM     15  C   UNL d   1     -23.883  23.912  23.083  0.00  0.00    -0.023 A 
ATOM     16  C   UNL d   1     -24.262  22.702  22.503  0.00  0.00     0.013 A 
ATOM     17  C   UNL d   1     -25.577  22.294  22.559  0.00  0.00     0.014 A 
BRANCH  15  18
ATOM     18  C   UNL d   1     -22.467  24.351  23.022  0.00  0.00     0.013 A 
ATOM     19  C   UNL d   1     -21.984  25.008  21.889  0.00  0.00     0.127 A 
ATOM     20  C   UNL d   1     -20.663  25.409  21.838  0.00  0.00     0.043 A 
ATOM     21  F   UNL d   1     -22.806  25.247  20.843  0.00  0.00    -0.205 F 
ATOM     22  C   UNL d   1     -19.823  25.170  22.911  0.00  0.00     0.003 A 
ATOM     23  C   UNL d   1     -20.298  24.519  24.036  0.00  0.00     0.001 A 
ATOM     24  C   UNL d   1     -21.614  24.109  24.097  0.00  0.00     0.015 A 
ENDBRANCH  15  18
ENDBRANCH   3  12
BRANCH  11  25
ATOM     25  C   UNL d   1     -30.367  21.280  25.807  0.00  0.00     0.177 C 
ATOM     26  O   UNL d   1     -31.042  22.020  26.495  0.00  0.00    -0.646 OA
BRANCH  25  27
ATOM     27  O   UNL d   1     -30.155  20.008  26.196  0.00  0.00    -0.773 OA
ATOM     28  H   UNL d   1     -29.504  19.865  26.896  0.00  0.00     0.167 HD
ENDBRANCH  25  27
ENDBRANCH  11  25
BRANCH   8  29
ATOM     29  C   UNL d   1     -34.021  21.154  22.000  0.00  0.00     0.434 C 
ATOM     30  F   UNL d   1     -34.167  20.133  21.054  0.00  0.00    -0.165 F 
ATOM     31  F   UNL d   1     -34.438  20.692  23.253  0.00  0.00    -0.165 F 
ATOM     32  F   UNL d   1     -34.802  22.252  21.625  0.00  0.00    -0.165 F 
ENDBRANCH   8  29
TORSDOF 5
ENDMDL
