MODEL 1
REMARK VINA RESULT:     -11.9      0.000      0.000
REMARK  5 active torsions:
REMARK  status: ('A' for Active; 'I' for Inactive)
REMARK    1  A    between atoms: C_5  and  C_6 
REMARK    2  A    between atoms: C_6  and  O_8 
REMARK    3  A    between atoms: C_10  and  C_11 
REMARK    4  A    between atoms: C_14  and  C_15 
REMARK    5  A    between atoms: C_18  and  O_19 
ROOT
ATOM      1  C   UNL d   1     -34.025  21.838  21.533  0.00  0.00     0.091 C 
ATOM      2  C   UNL d   1     -32.618  21.928  22.064  0.00  0.00     0.101 A 
ATOM      3  N   UNL d   1     -32.256  21.623  23.279  0.00  0.00    -0.233 NA
ATOM      4  C   UNL d   1     -30.932  21.821  23.424  0.00  0.00     0.102 A 
ATOM      5  C   UNL d   1     -30.040  21.659  24.508  0.00  0.00     0.069 A 
ATOM      6  C   UNL d   1     -28.692  21.957  24.338  0.00  0.00     0.033 A 
ATOM      7  C   UNL d   1     -28.223  22.413  23.107  0.00  0.00    -0.023 A 
ATOM      8  C   UNL d   1     -29.100  22.574  22.036  0.00  0.00     0.044 A 
ATOM      9  C   UNL d   1     -30.445  22.282  22.189  0.00  0.00     0.064 A 
ATOM     10  N   UNL d   1     -31.539  22.336  21.346  0.00  0.00    -0.343 N 
ATOM     11  H   UNL d   1     -31.538  22.616  20.417  0.00  0.00     0.167 HD
ENDROOT
BRANCH   7  12
ATOM     12  C   UNL d   1     -26.785  22.728  22.936  0.00  0.00    -0.026 A 
ATOM     13  C   UNL d   1     -26.207  23.767  23.665  0.00  0.00     0.013 A 
ATOM     14  C   UNL d   1     -24.871  24.060  23.506  0.00  0.00     0.013 A 
ATOM     15  C   UNL d   1     -24.095  23.318  22.615  0.00  0.00    -0.026 A 
ATOM     16  C   UNL d   1     -24.673  22.279  21.886  0.00  0.00     0.013 A 
ATOM     17  C   UNL d   1     -26.008  21.982  22.050  0.00  0.00     0.013 A 
BRANCH  15  18
ATOM     18  C   UNL d   1     -22.657  23.634  22.445  0.00  0.00    -0.026 A 
ATOM     19  C   UNL d   1     -22.172  24.030  21.199  0.00  0.00     0.015 A 
ATOM     20  C   UNL d   1     -20.834  24.324  21.042  0.00  0.00     0.037 A 
ATOM     21  C   UNL d   1     -19.969  24.226  22.123  0.00  0.00     0.065 A 
ATOM     22  C   UNL d   1     -20.449  23.832  23.366  0.00  0.00     0.037 A 
ATOM     23  C   UNL d   1     -21.787  23.541  23.530  0.00  0.00     0.015 A 
BRANCH  21  24
ATOM     24  O   UNL d   1     -18.652  24.516  21.967  0.00  0.00    -0.361 OA
ATOM     25  H   UNL d   1     -18.456  25.463  21.955  0.00  0.00     0.217 HD
ENDBRANCH  21  24
ENDBRANCH  15  18
ENDBRANCH   7  12
BRANCH   5  26
ATOM     26  C   UNL d   1     -30.534  21.178  25.809  0.00  0.00     0.178 C 
ATOM     27  O   UNL d   1     -31.265  21.880  26.479  0.00  0.00    -0.646 OA
BRANCH  26  28
ATOM     28  O   UNL d   1     -30.175  19.959  26.258  0.00  0.00    -0.773 OA
ATOM     29  H   UNL d   1     -29.583  19.928  27.021  0.00  0.00     0.167 HD
ENDBRANCH  26  28
ENDBRANCH   5  26
TORSDOF 5
ENDMDL
