MODEL 1
REMARK VINA RESULT:      -9.4      0.000      0.000
REMARK  7 active torsions:
REMARK  status: ('A' for Active; 'I' for Inactive)
REMARK    1  A    between atoms: C_3  and  C_4 
REMARK    2  A    between atoms: C_4  and  O_5 
REMARK    3  A    between atoms: C_4  and  C_6 
REMARK    4  A    between atoms: C_12  and  O_13 
REMARK    5  A    between atoms: O_13  and  C_14 
REMARK    6  A    between atoms: N_18  and  C_19 
REMARK    7  A    between atoms: C_22  and  C_23 
ROOT
ATOM      1  C   UNL d   1     -26.290  25.929  24.961  0.00  0.00     0.072 C 
ATOM      2  C   UNL d   1     -25.556  24.937  24.096  0.00  0.00     0.064 A 
ATOM      3  C   UNL d   1     -24.437  25.180  23.377  0.00  0.00     0.054 A 
ATOM      4  C   UNL d   1     -24.083  23.993  22.714  0.00  0.00     0.196 A 
ATOM      5  N   UNL d   1     -24.955  23.069  23.034  0.00  0.00    -0.126 NA
ATOM      6  N   UNL d   1     -25.896  23.635  23.904  0.00  0.00    -0.061 N 
ENDROOT
BRANCH   3   7
ATOM      7  C   UNL d   1     -23.702  26.493  23.297  0.00  0.00     0.190 C 
BRANCH   7   8
ATOM      8  O   UNL d   1     -23.471  26.826  21.927  0.00  0.00    -0.386 OA
ATOM      9  H   UNL d   1     -23.849  27.675  21.659  0.00  0.00     0.210 HD
ENDBRANCH   7   8
BRANCH   7  10
ATOM     10  C   UNL d   1     -22.382  26.375  24.016  0.00  0.00    -0.025 A 
ATOM     11  C   UNL d   1     -21.258  25.955  23.331  0.00  0.00     0.010 A 
ATOM     12  C   UNL d   1     -20.048  25.846  23.990  0.00  0.00     0.001 A 
ATOM     13  C   UNL d   1     -19.963  26.156  25.335  0.00  0.00     0.000 A 
ATOM     14  C   UNL d   1     -21.088  26.576  26.020  0.00  0.00     0.001 A 
ATOM     15  C   UNL d   1     -22.297  26.691  25.359  0.00  0.00     0.010 A 
ENDBRANCH   7  10
ENDBRANCH   3   7
BRANCH   4  16
ATOM     16  O   UNL d   1     -23.015  23.830  21.889  0.00  0.00    -0.328 OA
BRANCH  16  17
ATOM     17  C   UNL d   1     -23.225  24.087  20.499  0.00  0.00     0.122 C 
ATOM     18  C   UNL d   1     -23.741  22.818  19.818  0.00  0.00     0.040 C 
ATOM     19  C   UNL d   1     -21.905  24.511  19.853  0.00  0.00     0.040 C 
ENDBRANCH  16  17
ENDBRANCH   4  16
BRANCH   6  20
ATOM     20  C   UNL d   1     -26.988  22.980  24.471  0.00  0.00     0.749 A 
ATOM     21  N   UNL d   1     -27.981  22.586  23.690  0.00  0.00    -0.073 NA
ATOM     22  C   UNL d   1     -29.032  21.962  24.195  0.00  0.00     0.145 A 
ATOM     23  C   UNL d   1     -29.084  21.722  25.560  0.00  0.00    -0.018 A 
ATOM     24  C   UNL d   1     -28.026  22.150  26.347  0.00  0.00     0.145 A 
ATOM     25  N   UNL d   1     -27.004  22.763  25.776  0.00  0.00    -0.073 NA
BRANCH  23  26
ATOM     26  C   UNL d   1     -30.265  21.015  26.173  0.00  0.00     0.021 A 
ATOM     27  C   UNL d   1     -31.652  21.614  25.927  0.00  0.00     0.010 A 
ATOM     28  C   UNL d   1     -31.243  20.318  25.226  0.00  0.00     0.010 A 
ENDBRANCH  23  26
ENDBRANCH   6  20
TORSDOF 7
ENDMDL
