MODEL 1
REMARK VINA RESULT:      -8.8      0.000      0.000
REMARK  6 active torsions:
REMARK  status: ('A' for Active; 'I' for Inactive)
REMARK    1  A    between atoms: C_5  and  N_6 
REMARK       I    between atoms: N_6  and  C_7 
REMARK    2  A    between atoms: C_7  and  C_9 
REMARK    3  A    between atoms: C_9  and  C_10 
REMARK    4  A    between atoms: C_9  and  N_21 
REMARK    5  A    between atoms: C_10  and  C_11 
REMARK       I    between atoms: N_21  and  C_22 
REMARK    6  A    between atoms: C_22  and  C_24 
ROOT
ATOM      1  C   UNL d   1     -20.324  25.835  24.722  0.00  0.00     0.181 C 
ENDROOT
BRANCH   1   2
ATOM      2  C   UNL d   1     -20.655  26.395  26.081  0.00  0.00     0.245 C 
ATOM      3  N   UNL d   1     -19.773  26.278  27.092  0.00  0.00    -0.325 N 
ATOM      4  H   UNL d   1     -18.897  25.895  26.930  0.00  0.00     0.169 HD
ATOM      5  O   UNL d   1     -21.718  26.952  26.264  0.00  0.00    -0.271 OA
BRANCH   3   6
ATOM      6  C   UNL d   1     -20.120  26.712  28.377  0.00  0.00     0.034 A 
ATOM      7  C   UNL d   1     -20.130  28.068  28.674  0.00  0.00     0.030 A 
ATOM      8  C   UNL d   1     -20.472  28.494  29.944  0.00  0.00     0.009 A 
ATOM      9  C   UNL d   1     -20.804  27.569  30.917  0.00  0.00    -0.062 A 
ATOM     10  C   UNL d   1     -21.176  28.036  32.301  0.00  0.00     0.048 C 
ATOM     11  C   UNL d   1     -20.793  26.218  30.624  0.00  0.00     0.009 A 
ATOM     12  C   UNL d   1     -20.451  25.786  29.358  0.00  0.00     0.030 A 
ENDBRANCH   3   6
ENDBRANCH   1   2
BRANCH   1  13
ATOM     13  C   UNL d   1     -18.935  25.195  24.759  0.00  0.00     0.075 C 
BRANCH  13  14
ATOM     14  C   UNL d   1     -17.981  26.015  23.929  0.00  0.00    -0.028 A 
ATOM     15  C   UNL d   1     -17.348  27.276  24.321  0.00  0.00    -0.002 A 
ATOM     16  C   UNL d   1     -16.547  27.664  23.231  0.00  0.00     0.042 A 
ATOM     17  C   UNL d   1     -17.398  28.073  25.467  0.00  0.00     0.014 A 
ATOM     18  N   UNL d   1     -16.693  26.702  22.257  0.00  0.00    -0.365 N 
ATOM     19  C   UNL d   1     -15.812  28.843  23.311  0.00  0.00     0.030 A 
ATOM     20  C   UNL d   1     -17.545  25.725  22.693  0.00  0.00     0.096 A 
ATOM     21  H   UNL d   1     -16.253  26.713  21.392  0.00  0.00     0.165 HD
ATOM     22  C   UNL d   1     -15.877  29.613  24.451  0.00  0.00     0.002 A 
ATOM     23  C   UNL d   1     -16.667  29.226  25.524  0.00  0.00     0.001 A 
ENDBRANCH  13  14
ENDBRANCH   1  13
BRANCH   1  24
ATOM     24  N   UNL d   1     -21.318  24.824  24.353  0.00  0.00    -0.346 N 
ATOM     25  C   UNL d   1     -21.749  24.735  23.080  0.00  0.00     0.252 C 
ATOM     26  O   UNL d   1     -21.313  25.492  22.238  0.00  0.00    -0.271 OA
ATOM     27  H   UNL d   1     -21.666  24.219  25.026  0.00  0.00     0.163 HD
BRANCH  25  28
ATOM     28  C   UNL d   1     -22.770  23.695  22.701  0.00  0.00     0.316 C 
ATOM     29  N   UNL d   1     -22.992  23.726  21.246  0.00  0.00     0.101 N 
ATOM     30  C   UNL d   1     -23.779  22.562  20.827  0.00  0.00     0.310 C 
ATOM     31  H   UNL d   1     -23.442  24.585  20.968  0.00  0.00     0.317 HD
ATOM     32  C   UNL d   1     -25.037  22.453  21.647  0.00  0.00    -0.024 A 
ATOM     33  C   UNL d   1     -25.184  23.116  22.846  0.00  0.00    -0.048 A 
ATOM     34  C   UNL d   1     -26.068  21.654  21.171  0.00  0.00     0.009 A 
ATOM     35  C   UNL d   1     -24.096  23.999  23.401  0.00  0.00     0.084 C 
ATOM     36  C   UNL d   1     -26.359  22.979  23.571  0.00  0.00     0.008 A 
ATOM     37  C   UNL d   1     -27.381  22.183  23.098  0.00  0.00     0.001 A 
ATOM     38  C   UNL d   1     -27.236  21.519  21.893  0.00  0.00     0.001 A 
ENDBRANCH  25  28
ENDBRANCH   1  24
TORSDOF 6
ENDMDL
