MODEL 1
REMARK VINA RESULT:     -10.1      0.000      0.000
REMARK  7 active torsions:
REMARK  status: ('A' for Active; 'I' for Inactive)
REMARK    1  A    between atoms: C_2  and  O_3 
REMARK    2  A    between atoms: C_2  and  C_34 
REMARK    3  A    between atoms: O_3  and  C_4 
REMARK    4  A    between atoms: C_6  and  N_7 
REMARK    5  A    between atoms: C_20  and  C_21 
REMARK       I    between atoms: C_21  and  N_23 
REMARK    6  A    between atoms: N_23  and  C_24 
REMARK    7  A    between atoms: C_24  and  C_25 
ROOT
ATOM      1  C   UNL d   1     -24.613  23.333  22.600  0.00  0.00     0.087 A 
ATOM      2  C   UNL d   1     -25.849  22.773  22.875  0.00  0.00     0.071 A 
ATOM      3  C   UNL d   1     -26.642  23.302  23.885  0.00  0.00     0.088 A 
ATOM      4  C   UNL d   1     -26.201  24.401  24.622  0.00  0.00     0.064 A 
ATOM      5 CL   UNL d   1     -27.203  25.058  25.877  0.00  0.00    -0.082 Cl
ATOM      6  C   UNL d   1     -24.972  24.960  24.361  0.00  0.00     0.046 A 
ATOM      7  C   UNL d   1     -24.166  24.435  23.345  0.00  0.00     0.067 A 
ENDROOT
BRANCH   7   8
ATOM      8  C   UNL d   1     -22.852  25.036  23.058  0.00  0.00     0.255 C 
ATOM      9  O   UNL d   1     -22.783  26.165  22.613  0.00  0.00    -0.268 OA
ATOM     10  N   UNL d   1     -21.725  24.332  23.290  0.00  0.00    -0.343 N 
ATOM     11  H   UNL d   1     -21.781  23.408  23.576  0.00  0.00     0.164 HD
BRANCH  10  12
ATOM     12  C   UNL d   1     -20.416  24.965  23.107  0.00  0.00     0.060 A 
ATOM     13  C   UNL d   1     -19.404  24.247  22.211  0.00  0.00     0.039 A 
ATOM     14  C   UNL d   1     -20.090  25.525  21.721  0.00  0.00     0.039 A 
BRANCH  12  15
ATOM     15  C   UNL d   1     -19.882  25.710  24.303  0.00  0.00    -0.030 A 
ATOM     16  C   UNL d   1     -18.692  26.409  24.207  0.00  0.00     0.013 A 
ATOM     17  C   UNL d   1     -18.202  27.093  25.302  0.00  0.00     0.043 A 
ATOM     18  C   UNL d   1     -18.901  27.079  26.498  0.00  0.00     0.116 A 
ATOM     19  C   UNL d   1     -20.092  26.379  26.593  0.00  0.00     0.043 A 
ATOM     20  F   UNL d   1     -18.422  27.747  27.569  0.00  0.00    -0.206 F 
ATOM     21  C   UNL d   1     -20.584  25.699  25.494  0.00  0.00     0.013 A 
ENDBRANCH  12  15
ENDBRANCH  10  12
ENDBRANCH   7   8
BRANCH   1  22
ATOM     22  O   UNL d   1     -23.838  22.819  21.614  0.00  0.00    -0.336 OA
BRANCH  22  23
ATOM     23  C   UNL d   1     -23.994  23.376  20.307  0.00  0.00     0.232 C 
ATOM     24  C   UNL d   1     -22.633  23.837  19.783  0.00  0.00     0.049 C 
BRANCH  23  25
ATOM     25  C   UNL d   1     -24.572  22.318  19.366  0.00  0.00     0.413 C 
ATOM     26  F   UNL d   1     -25.847  21.947  19.808  0.00  0.00    -0.168 F 
ATOM     27  F   UNL d   1     -24.662  22.843  18.072  0.00  0.00    -0.168 F 
ATOM     28  F   UNL d   1     -23.736  21.197  19.357  0.00  0.00    -0.168 F 
ENDBRANCH  23  25
ENDBRANCH  22  23
ENDBRANCH   1  22
BRANCH   3  29
ATOM     29  N   UNL d   1     -27.888  22.735  24.160  0.00  0.00    -0.179 N 
ATOM     30  C   UNL d   1     -28.217  22.020  25.257  0.00  0.00     0.351 A 
ATOM     31  N   UNL d   1     -29.513  21.685  25.143  0.00  0.00    -0.284 N 
ATOM     32  O   UNL d   1     -27.476  21.732  26.179  0.00  0.00    -0.244 OA
ATOM     33  C   UNL d   1     -29.981  22.166  23.938  0.00  0.00     0.131 A 
ATOM     34  C   UNL d   1     -30.335  20.956  26.115  0.00  0.00     0.135 C 
ATOM     35  N   UNL d   1     -29.028  22.799  23.344  0.00  0.00    -0.149 NA
ATOM     36  C   UNL d   1     -31.392  21.951  23.439  0.00  0.00     0.081 C 
ATOM     37  C   UNL d   1     -32.264  21.553  24.638  0.00  0.00     0.009 C 
ATOM     38  C   UNL d   1     -31.576  20.413  25.398  0.00  0.00     0.021 C 
ENDBRANCH   3  29
TORSDOF 7
ENDMDL
