MODEL 1
REMARK VINA RESULT:     -12.3      0.000      0.000
REMARK  6 active torsions:
REMARK  status: ('A' for Active; 'I' for Inactive)
REMARK    1  A    between atoms: C_2  and  O_3 
REMARK    2  A    between atoms: C_2  and  C_4 
REMARK    3  A    between atoms: C_5  and  O_6 
REMARK    4  A    between atoms: C_7  and  C_8 
REMARK    5  A    between atoms: C_11  and  C_12 
REMARK    6  A    between atoms: C_15  and  O_16 
ROOT
ATOM      1  C   UNL d   1     -30.025  21.650  24.562  0.00  0.00     0.085 A 
ATOM      2  C   UNL d   1     -28.675  21.967  24.402  0.00  0.00     0.113 A 
ATOM      3  C   UNL d   1     -28.211  22.381  23.136  0.00  0.00     0.102 A 
ATOM      4  N   UNL d   1     -29.007  22.468  22.092  0.00  0.00    -0.245 NA
ATOM      5  C   UNL d   1     -30.308  22.178  22.156  0.00  0.00     0.069 A 
ATOM      6  C   UNL d   1     -31.129  22.285  21.018  0.00  0.00     0.035 A 
ATOM      7  C   UNL d   1     -32.452  21.984  21.109  0.00  0.00     0.044 A 
ATOM      8  C   UNL d   1     -33.015  21.571  22.316  0.00  0.00     0.117 A 
ATOM      9  F   UNL d   1     -34.333  21.280  22.374  0.00  0.00    -0.206 F 
ATOM     10  C   UNL d   1     -32.248  21.456  23.442  0.00  0.00     0.057 A 
ATOM     11  C   UNL d   1     -30.884  21.758  23.381  0.00  0.00     0.015 A 
ENDROOT
BRANCH   3  12
ATOM     12  C   UNL d   1     -26.779  22.721  22.974  0.00  0.00    -0.004 A 
ATOM     13  C   UNL d   1     -25.968  21.948  22.141  0.00  0.00     0.014 A 
ATOM     14  C   UNL d   1     -24.638  22.268  21.986  0.00  0.00     0.013 A 
ATOM     15  C   UNL d   1     -24.098  23.356  22.670  0.00  0.00    -0.026 A 
ATOM     16  C   UNL d   1     -24.908  24.129  23.504  0.00  0.00     0.013 A 
ATOM     17  C   UNL d   1     -26.240  23.813  23.655  0.00  0.00     0.014 A 
BRANCH  15  18
ATOM     18  C   UNL d   1     -22.664  23.697  22.507  0.00  0.00    -0.026 A 
ATOM     19  C   UNL d   1     -21.799  23.621  23.598  0.00  0.00     0.015 A 
ATOM     20  C   UNL d   1     -20.467  23.938  23.443  0.00  0.00     0.037 A 
ATOM     21  C   UNL d   1     -19.985  24.334  22.202  0.00  0.00     0.065 A 
ATOM     22  C   UNL d   1     -20.844  24.410  21.113  0.00  0.00     0.037 A 
ATOM     23  C   UNL d   1     -22.176  24.088  21.260  0.00  0.00     0.015 A 
BRANCH  21  24
ATOM     24  O   UNL d   1     -18.671  24.645  22.053  0.00  0.00    -0.361 OA
ATOM     25  H   UNL d   1     -18.511  25.561  21.787  0.00  0.00     0.217 HD
ENDBRANCH  21  24
ENDBRANCH  15  18
ENDBRANCH   3  12
BRANCH   2  26
ATOM     26  O   UNL d   1     -27.823  21.884  25.452  0.00  0.00    -0.357 OA
ATOM     27  H   UNL d   1     -27.378  22.716  25.665  0.00  0.00     0.217 HD
ENDBRANCH   2  26
BRANCH   1  28
ATOM     28  C   UNL d   1     -30.563  21.219  25.863  0.00  0.00     0.180 C 
ATOM     29  O   UNL d   1     -31.328  21.939  26.474  0.00  0.00    -0.646 OA
BRANCH  28  30
ATOM     30  O   UNL d   1     -30.206  20.025  26.378  0.00  0.00    -0.773 OA
ATOM     31  H   UNL d   1     -30.907  19.489  26.771  0.00  0.00     0.167 HD
ENDBRANCH  28  30
ENDBRANCH   1  28
TORSDOF 6
ENDMDL
