MODEL 1
REMARK VINA RESULT:      -9.5      0.000      0.000
REMARK  6 active torsions:
REMARK  status: ('A' for Active; 'I' for Inactive)
REMARK    1  A    between atoms: C_2  and  N_3 
REMARK    2  A    between atoms: C_4  and  C_5 
REMARK    3  A    between atoms: C_5  and  O_6 
REMARK    4  A    between atoms: N_8  and  C_9 
REMARK    5  A    between atoms: C_12  and  C_13 
REMARK    6  A    between atoms: N_17  and  C_18 
ROOT
ATOM      1  C   UNL d   1     -28.553  22.149  22.244  0.00  0.00     0.195 A 
ATOM      2  N   UNL d   1     -27.830  23.029  22.913  0.00  0.00    -0.223 NA
ATOM      3  C   UNL d   1     -26.545  23.220  22.630  0.00  0.00     0.102 A 
ATOM      4  C   UNL d   1     -25.735  24.195  23.361  0.00  0.00     0.088 A 
ATOM      5  N   UNL d   1     -24.483  24.363  23.055  0.00  0.00    -0.166 NA
ATOM      6  N   UNL d   1     -23.854  23.647  22.035  0.00  0.00    -0.196 N 
ATOM      7  C   UNL d   1     -24.518  22.731  21.301  0.00  0.00     0.281 A 
ATOM      8  O   UNL d   1     -23.949  22.117  20.415  0.00  0.00    -0.265 OA
ATOM      9  C   UNL d   1     -25.932  22.487  21.588  0.00  0.00     0.068 A 
ATOM     10  C   UNL d   1     -26.685  21.551  20.870  0.00  0.00     0.066 A 
ATOM     11  C   UNL d   1     -28.004  21.389  21.206  0.00  0.00     0.165 A 
ATOM     12  F   UNL d   1     -28.769  20.496  20.540  0.00  0.00    -0.202 F 
ENDROOT
BRANCH   1  13
ATOM     13  N   UNL d   1     -29.895  21.976  22.578  0.00  0.00    -0.159 N 
ATOM     14  N   UNL d   1     -30.396  21.587  23.827  0.00  0.00    -0.145 NA
ATOM     15  C   UNL d   1     -31.688  21.540  23.746  0.00  0.00     0.154 A 
ATOM     16  N   UNL d   1     -32.063  21.880  22.469  0.00  0.00    -0.283 N 
ATOM     17  C   UNL d   1     -30.951  22.148  21.757  0.00  0.00     0.352 A 
ATOM     18  O   UNL d   1     -30.908  22.482  20.586  0.00  0.00    -0.244 OA
BRANCH  15  19
ATOM     19  C   UNL d   1     -32.624  21.168  24.866  0.00  0.00     0.244 C 
BRANCH  19  20
ATOM     20  O   UNL d   1     -31.977  21.388  26.121  0.00  0.00    -0.393 OA
ATOM     21  H   UNL d   1     -32.495  21.917  26.743  0.00  0.00     0.209 HD
ENDBRANCH  19  20
ENDBRANCH  15  19
BRANCH  16  22
ATOM     22  C   UNL d   1     -33.439  21.942  21.968  0.00  0.00     0.131 C 
ATOM     23  C   UNL d   1     -33.854  20.565  21.448  0.00  0.00     0.027 C 
ENDBRANCH  16  22
ENDBRANCH   1  13
BRANCH   4  24
ATOM     24  C   UNL d   1     -26.352  25.002  24.475  0.00  0.00     0.034 C 
ATOM     25  C   UNL d   1     -25.373  26.091  24.918  0.00  0.00     0.016 C 
ATOM     26  C   UNL d   1     -26.662  24.083  25.659  0.00  0.00     0.016 C 
ENDBRANCH   4  24
BRANCH   6  27
ATOM     27  C   UNL d   1     -22.501  23.888  21.768  0.00  0.00     0.068 A 
ATOM     28  C   UNL d   1     -21.530  23.483  22.673  0.00  0.00    -0.033 A 
ATOM     29  C   UNL d   1     -20.196  23.717  22.404  0.00  0.00     0.009 A 
ATOM     30  C   UNL d   1     -21.931  22.783  23.946  0.00  0.00     0.050 C 
ATOM     31  C   UNL d   1     -19.828  24.365  21.238  0.00  0.00     0.001 A 
ATOM     32  C   UNL d   1     -20.794  24.775  20.337  0.00  0.00     0.002 A 
ATOM     33  C   UNL d   1     -22.129  24.539  20.598  0.00  0.00     0.032 A 
ENDBRANCH   6  27
TORSDOF 6
ENDMDL
