MODEL 1
REMARK VINA RESULT:     -11.1      0.000      0.000
REMARK  6 active torsions:
REMARK  status: ('A' for Active; 'I' for Inactive)
REMARK       I    between atoms: N_2  and  C_4 
REMARK    1  A    between atoms: C_4  and  C_6 
REMARK    2  A    between atoms: C_11  and  C_12 
REMARK    3  A    between atoms: C_12  and  C_13 
REMARK    4  A    between atoms: C_13  and  C_14 
REMARK    5  A    between atoms: CA_15  and  C_16 
REMARK    6  A    between atoms: C_16  and  OXT_18 
ROOT
ATOM      1  C   UNL d   1     -30.347  22.100  22.287  0.00  0.00     0.043 C 
ENDROOT
BRANCH   1   2
ATOM      2  C   UNL d   1     -28.844  22.178  22.197  0.00  0.00    -0.057 A 
ATOM      3  C   UNL d   1     -28.162  22.980  23.060  0.00  0.00     0.019 A 
ATOM      4  C   UNL d   1     -26.762  23.055  22.981  0.00  0.00    -0.025 A 
ATOM      5  C   UNL d   1     -26.027  23.871  23.862  0.00  0.00     0.013 A 
ATOM      6  C   UNL d   1     -26.080  22.292  21.999  0.00  0.00    -0.025 A 
ATOM      7  C   UNL d   1     -24.675  23.933  23.763  0.00  0.00     0.018 A 
ATOM      8  C   UNL d   1     -23.988  23.180  22.794  0.00  0.00     0.033 A 
ATOM      9  C   UNL d   1     -24.681  22.364  21.915  0.00  0.00     0.029 A 
ATOM     10  C   UNL d   1     -26.819  21.475  21.126  0.00  0.00     0.013 A 
ATOM     11  C   UNL d   1     -28.175  21.427  21.232  0.00  0.00     0.008 A 
BRANCH   8  12
ATOM     12  C   UNL d   1     -22.514  23.261  22.712  0.00  0.00     0.253 C 
ATOM     13  N   UNL d   1     -21.933  24.023  21.766  0.00  0.00    -0.357 N 
ATOM     14  C   UNL d   1     -20.478  24.188  21.749  0.00  0.00     0.152 C 
ATOM     15  C   UNL d   1     -22.757  24.687  20.752  0.00  0.00     0.152 C 
ATOM     16  O   UNL d   1     -21.827  22.639  23.499  0.00  0.00    -0.267 OA
ENDBRANCH   8  12
ENDBRANCH   1   2
BRANCH   1  17
ATOM     17  C   UNL d   1     -30.801  22.575  23.668  0.00  0.00     0.051 C 
BRANCH  17  18
ATOM     18  C   UNL d   1     -31.098  21.380  24.537  0.00  0.00     0.044 A 
ATOM     19  C   UNL d   1     -30.161  20.964  25.588  0.00  0.00     0.258 A 
ATOM     20  N   UNL d   1     -30.468  19.891  26.346  0.00  0.00    -0.275 N 
ATOM     21  O   UNL d   1     -29.128  21.578  25.775  0.00  0.00    -0.267 OA
ATOM     22  C   UNL d   1     -31.609  19.211  26.133  0.00  0.00     0.327 A 
ATOM     23  H   UNL d   1     -29.860  19.606  27.046  0.00  0.00     0.173 HD
ATOM     24  N   UNL d   1     -32.478  19.570  25.173  0.00  0.00    -0.302 N 
ATOM     25  O   UNL d   1     -31.859  18.245  26.827  0.00  0.00    -0.247 OA
ATOM     26  CA  UNL d   1     -32.235  20.659  24.363  0.00  0.00     0.122 A 
ATOM     27  H   UNL d   1     -33.290  19.054  25.049  0.00  0.00     0.171 HD
BRANCH  26  28
ATOM     28  C   UNL d   1     -33.209  21.038  23.311  0.00  0.00     0.194 C 
ATOM     29  O   UNL d   1     -33.486  20.251  22.429  0.00  0.00    -0.645 OA
BRANCH  28  30
ATOM     30  OXT UNL d   1     -33.785  22.255  23.333  0.00  0.00    -0.772 OA
ATOM     31  HXT UNL d   1     -34.480  22.400  23.990  0.00  0.00     0.167 HD
ENDBRANCH  28  30
ENDBRANCH  26  28
ENDBRANCH  17  18
ENDBRANCH   1  17
TORSDOF 6
ENDMDL
