MODEL 1
REMARK VINA RESULT:     -11.9      0.000      0.000
REMARK  5 active torsions:
REMARK  status: ('A' for Active; 'I' for Inactive)
REMARK    1  A    between atoms: C_5  and  C_6 
REMARK    2  A    between atoms: C_6  and  O_8 
REMARK    3  A    between atoms: C_10  and  C_11 
REMARK    4  A    between atoms: C_14  and  C_15 
REMARK    5  A    between atoms: C_20  and  O_21 
ROOT
ATOM      1  C   UNL d   1     -34.026  21.795  22.046  0.00  0.00     0.091 C 
ATOM      2  C   UNL d   1     -32.583  21.894  22.470  0.00  0.00     0.101 A 
ATOM      3  N   UNL d   1     -32.127  21.574  23.648  0.00  0.00    -0.233 NA
ATOM      4  C   UNL d   1     -30.798  21.782  23.696  0.00  0.00     0.102 A 
ATOM      5  C   UNL d   1     -29.823  21.606  24.703  0.00  0.00     0.069 A 
ATOM      6  C   UNL d   1     -28.494  21.919  24.437  0.00  0.00     0.033 A 
ATOM      7  C   UNL d   1     -28.126  22.403  23.182  0.00  0.00    -0.023 A 
ATOM      8  C   UNL d   1     -29.085  22.584  22.187  0.00  0.00     0.044 A 
ATOM      9  C   UNL d   1     -30.411  22.272  22.436  0.00  0.00     0.064 A 
ATOM     10  N   UNL d   1     -31.567  22.331  21.681  0.00  0.00    -0.343 N 
ATOM     11  H   UNL d   1     -31.640  22.629  20.761  0.00  0.00     0.167 HD
ENDROOT
BRANCH   7  12
ATOM     12  C   UNL d   1     -26.707  22.734  22.906  0.00  0.00    -0.026 A 
ATOM     13  C   UNL d   1     -26.085  23.772  23.598  0.00  0.00     0.013 A 
ATOM     14  C   UNL d   1     -24.766  24.075  23.346  0.00  0.00     0.013 A 
ATOM     15  C   UNL d   1     -24.056  23.351  22.388  0.00  0.00    -0.023 A 
ATOM     16  C   UNL d   1     -24.678  22.313  21.695  0.00  0.00     0.013 A 
ATOM     17  C   UNL d   1     -25.996  22.006  21.953  0.00  0.00     0.013 A 
BRANCH  15  18
ATOM     18  C   UNL d   1     -22.637  23.682  22.111  0.00  0.00     0.007 A 
ATOM     19  C   UNL d   1     -22.286  24.334  20.925  0.00  0.00     0.076 A 
ATOM     20  C   UNL d   1     -20.958  24.644  20.677  0.00  0.00     0.037 A 
ATOM     21  C   UNL d   1     -19.985  24.309  21.600  0.00  0.00     0.003 A 
ATOM     22  C   UNL d   1     -20.330  23.664  22.774  0.00  0.00     0.001 A 
ATOM     23  C   UNL d   1     -21.648  23.350  23.034  0.00  0.00     0.015 A 
BRANCH  19  24
ATOM     24  O   UNL d   1     -23.243  24.663  20.019  0.00  0.00    -0.360 OA
ATOM     25  H   UNL d   1     -23.032  25.444  19.490  0.00  0.00     0.217 HD
ENDBRANCH  19  24
ENDBRANCH  15  18
ENDBRANCH   7  12
BRANCH   5  26
ATOM     26  C   UNL d   1     -30.211  21.095  26.029  0.00  0.00     0.178 C 
ATOM     27  O   UNL d   1     -30.090  21.800  27.011  0.00  0.00    -0.646 OA
BRANCH  26  28
ATOM     28  O   UNL d   1     -30.698  19.844  26.153  0.00  0.00    -0.773 OA
ATOM     29  H   UNL d   1     -31.492  19.734  26.693  0.00  0.00     0.167 HD
ENDBRANCH  26  28
ENDBRANCH   5  26
TORSDOF 5
ENDMDL
