MODEL 1
REMARK VINA RESULT:     -13.0      0.000      0.000
REMARK  4 active torsions:
REMARK  status: ('A' for Active; 'I' for Inactive)
REMARK    1  A    between atoms: C_2  and  O_3 
REMARK    2  A    between atoms: C_2  and  C_4 
REMARK    3  A    between atoms: C_11  and  C_12 
REMARK    4  A    between atoms: C_17  and  C_18 
ROOT
ATOM      1  C   UNL d   1     -27.256  22.488  23.121  0.00  0.00     0.093 A 
ATOM      2  C   UNL d   1     -26.620  23.533  23.796  0.00  0.00     0.173 A 
ATOM      3  F   UNL d   1     -27.273  24.205  24.770  0.00  0.00    -0.202 F 
ATOM      4  C   UNL d   1     -25.324  23.880  23.469  0.00  0.00     0.170 A 
ATOM      5  F   UNL d   1     -24.709  24.890  24.122  0.00  0.00    -0.202 F 
ATOM      6  C   UNL d   1     -24.649  23.186  22.462  0.00  0.00     0.058 A 
ATOM      7  C   UNL d   1     -25.285  22.144  21.783  0.00  0.00     0.170 A 
ATOM      8  F   UNL d   1     -24.632  21.478  20.805  0.00  0.00    -0.202 F 
ATOM      9  C   UNL d   1     -26.578  21.793  22.113  0.00  0.00     0.173 A 
ATOM     10  F   UNL d   1     -27.191  20.781  21.460  0.00  0.00    -0.202 F 
ENDROOT
BRANCH   1  11
ATOM     11  C   UNL d   1     -28.641  22.116  23.470  0.00  0.00     0.145 A 
ATOM     12  N   UNL d   1     -29.043  21.614  24.677  0.00  0.00    -0.338 N 
ATOM     13  C   UNL d   1     -30.406  21.400  24.594  0.00  0.00     0.064 A 
ATOM     14  H   UNL d   1     -28.478  21.442  25.446  0.00  0.00     0.167 HD
ATOM     15  C   UNL d   1     -31.357  20.915  25.478  0.00  0.00     0.032 A 
ATOM     16  C   UNL d   1     -30.785  21.793  23.298  0.00  0.00     0.102 A 
ATOM     17  C   UNL d   1     -32.681  20.817  25.091  0.00  0.00     0.003 A 
ATOM     18  C   UNL d   1     -33.075  21.197  23.823  0.00  0.00     0.021 A 
ATOM     19  C   UNL d   1     -32.140  21.687  22.913  0.00  0.00     0.068 A 
ATOM     20  N   UNL d   1     -29.678  22.221  22.669  0.00  0.00    -0.227 NA
BRANCH  19  21
ATOM     21  C   UNL d   1     -32.562  22.093  21.562  0.00  0.00     0.178 C 
ATOM     22  O   UNL d   1     -33.719  22.402  21.353  0.00  0.00    -0.646 OA
BRANCH  21  23
ATOM     23  O   UNL d   1     -31.665  22.123  20.556  0.00  0.00    -0.773 OA
ATOM     24  H   UNL d   1     -31.660  21.371  19.949  0.00  0.00     0.167 HD
ENDBRANCH  21  23
ENDBRANCH  19  21
ENDBRANCH   1  11
BRANCH   6  25
ATOM     25  C   UNL d   1     -23.257  23.558  22.111  0.00  0.00    -0.017 A 
ATOM     26  C   UNL d   1     -23.000  24.284  20.950  0.00  0.00     0.058 A 
ATOM     27  C   UNL d   1     -21.701  24.624  20.625  0.00  0.00     0.155 A 
ATOM     28  C   UNL d   1     -20.656  24.251  21.457  0.00  0.00     0.154 A 
ATOM     29  F   UNL d   1     -21.448  25.322  19.496  0.00  0.00    -0.203 F 
ATOM     30  C   UNL d   1     -20.909  23.530  22.613  0.00  0.00     0.046 A 
ATOM     31  F   UNL d   1     -19.387  24.590  21.139  0.00  0.00    -0.203 F 
ATOM     32  C   UNL d   1     -22.203  23.182  22.942  0.00  0.00     0.015 A 
ENDBRANCH   6  25
TORSDOF 4
ENDMDL
