MODEL 1
REMARK VINA RESULT:      -9.4      0.000      0.000
REMARK  8 active torsions:
REMARK  status: ('A' for Active; 'I' for Inactive)
REMARK    1  A    between atoms: C_2  and  C_3 
REMARK    2  A    between atoms: C_2  and  O_7 
REMARK    3  A    between atoms: C_3  and  N_4 
REMARK    4  A    between atoms: O_7  and  C_8 
REMARK    5  A    between atoms: C_10  and  N_11 
REMARK    6  A    between atoms: C_24  and  C_25 
REMARK       I    between atoms: C_25  and  N_27 
REMARK    7  A    between atoms: N_27  and  C_28 
REMARK    8  A    between atoms: C_33  and  C_34 
ROOT
ATOM      1  C   UNL d   1     -26.415  23.421  23.237  0.00  0.00     0.087 A 
ATOM      2  C   UNL d   1     -27.788  23.252  23.189  0.00  0.00     0.073 A 
ATOM      3  C   UNL d   1     -28.343  22.303  22.343  0.00  0.00     0.104 A 
ATOM      4  C   UNL d   1     -27.521  21.519  21.533  0.00  0.00     0.146 A 
ATOM      5  F   UNL d   1     -28.068  20.596  20.711  0.00  0.00    -0.204 F 
ATOM      6  C   UNL d   1     -26.155  21.683  21.568  0.00  0.00     0.064 A 
ATOM      7  C   UNL d   1     -25.587  22.639  22.419  0.00  0.00     0.068 A 
ENDROOT
BRANCH   7   8
ATOM      8  C   UNL d   1     -24.127  22.817  22.459  0.00  0.00     0.259 C 
ATOM      9  O   UNL d   1     -23.393  21.854  22.343  0.00  0.00    -0.267 OA
ATOM     10  N   UNL d   1     -23.602  24.047  22.625  0.00  0.00    -0.322 N 
ATOM     11  H   UNL d   1     -24.184  24.804  22.797  0.00  0.00     0.169 HD
BRANCH  10  12
ATOM     12  C   UNL d   1     -22.217  24.233  22.551  0.00  0.00     0.046 A 
ATOM     13  C   UNL d   1     -21.620  24.539  21.336  0.00  0.00     0.032 A 
ATOM     14  C   UNL d   1     -20.251  24.718  21.265  0.00  0.00     0.015 A 
ATOM     15  C   UNL d   1     -19.479  24.602  22.406  0.00  0.00     0.001 A 
ATOM     16  C   UNL d   1     -20.071  24.296  23.618  0.00  0.00     0.002 A 
ATOM     17  C   UNL d   1     -21.437  24.112  23.695  0.00  0.00     0.030 A 
BRANCH  13  18
ATOM     18  C   UNL d   1     -22.463  24.673  20.094  0.00  0.00     0.389 C 
ATOM     19  F   UNL d   1     -21.788  25.464  19.156  0.00  0.00    -0.209 F 
ATOM     20  F   UNL d   1     -22.698  23.406  19.550  0.00  0.00    -0.209 F 
ENDBRANCH  13  18
ENDBRANCH  10  12
ENDBRANCH   7   8
BRANCH   1  21
ATOM     21  O   UNL d   1     -25.872  24.346  24.068  0.00  0.00    -0.343 OA
BRANCH  21  22
ATOM     22  C   UNL d   1     -26.238  24.274  25.447  0.00  0.00     0.153 C 
ATOM     23  C   UNL d   1     -26.681  25.657  25.930  0.00  0.00     0.042 C 
BRANCH  22  24
ATOM     24  C   UNL d   1     -27.390  23.282  25.618  0.00  0.00     0.303 C 
BRANCH  24  25
ATOM     25  N   UNL d   1     -27.378  22.749  26.987  0.00  0.00     0.082 N 
ATOM     26  C   UNL d   1     -28.730  22.746  27.563  0.00  0.00     0.309 C 
ATOM     27  C   UNL d   1     -26.789  21.404  27.022  0.00  0.00     0.309 C 
ENDBRANCH  24  25
ENDBRANCH  22  24
ENDBRANCH  21  22
ENDBRANCH   1  21
BRANCH   3  28
ATOM     28  N   UNL d   1     -29.728  22.131  22.302  0.00  0.00    -0.178 N 
ATOM     29  C   UNL d   1     -30.527  21.812  23.344  0.00  0.00     0.351 A 
ATOM     30  N   UNL d   1     -31.787  21.770  22.884  0.00  0.00    -0.284 N 
ATOM     31  O   UNL d   1     -30.168  21.602  24.489  0.00  0.00    -0.244 OA
ATOM     32  C   UNL d   1     -31.766  22.031  21.530  0.00  0.00     0.131 A 
ATOM     33  C   UNL d   1     -33.011  21.523  23.656  0.00  0.00     0.135 C 
ATOM     34  N   UNL d   1     -30.549  22.261  21.171  0.00  0.00    -0.149 NA
ATOM     35  C   UNL d   1     -32.996  22.020  20.654  0.00  0.00     0.081 C 
ATOM     36  C   UNL d   1     -34.227  22.147  21.561  0.00  0.00     0.009 C 
ATOM     37  C   UNL d   1     -34.127  21.113  22.687  0.00  0.00     0.021 C 
ENDBRANCH   3  28
TORSDOF 8
ENDMDL
