MODEL 1
REMARK VINA RESULT:     -10.3      0.000      0.000
REMARK  5 active torsions:
REMARK  status: ('A' for Active; 'I' for Inactive)
REMARK    1  A    between atoms: C_3  and  C_4 
REMARK    2  A    between atoms: C_4  and  N_5 
REMARK       I    between atoms: N_8  and  C_9 
REMARK    3  A    between atoms: C_9  and  C_11 
REMARK    4  A    between atoms: C_21  and  N_22 
REMARK       I    between atoms: N_22  and  C_23 
REMARK       I    between atoms: C_23  and  N_25 
REMARK    5  A    between atoms: N_25  and  C_26 
ROOT
ATOM      1  C   UNL d   1     -24.950  23.460  23.524  0.00  0.00     0.051 C 
ATOM      2  C   UNL d   1     -24.585  23.209  22.084  0.00  0.00    -0.027 A 
ATOM      3  C   UNL d   1     -25.152  22.149  21.402  0.00  0.00    -0.022 A 
ATOM      4  C   UNL d   1     -24.816  21.918  20.080  0.00  0.00     0.009 A 
ATOM      5  C   UNL d   1     -23.915  22.746  19.437  0.00  0.00     0.003 A 
ATOM      6  C   UNL d   1     -23.346  23.806  20.113  0.00  0.00     0.030 A 
ATOM      7  C   UNL d   1     -23.683  24.045  21.439  0.00  0.00     0.042 A 
ENDROOT
BRANCH   3   8
ATOM      8  C   UNL d   1     -26.134  21.244  22.099  0.00  0.00     0.311 C 
BRANCH   8   9
ATOM      9  N   UNL d   1     -27.392  21.969  22.325  0.00  0.00     0.095 N 
ATOM     10  C   UNL d   1     -27.944  21.666  23.651  0.00  0.00     0.292 C 
ATOM     11  C   UNL d   1     -29.150  22.573  23.920  0.00  0.00     0.156 C 
ATOM     12  N   UNL d   1     -30.098  22.431  22.804  0.00  0.00    -0.348 N 
ATOM     13  C   UNL d   1     -29.588  22.585  21.433  0.00  0.00     0.156 C 
ATOM     14  C   UNL d   1     -31.399  22.166  23.033  0.00  0.00     0.224 C 
ATOM     15  C   UNL d   1     -28.365  21.677  21.264  0.00  0.00     0.292 C 
ATOM     16  O   UNL d   1     -31.803  22.042  24.170  0.00  0.00    -0.273 OA
BRANCH  14  17
ATOM     17  C   UNL d   1     -32.354  22.024  21.875  0.00  0.00     0.078 C 
ATOM     18  C   UNL d   1     -32.785  20.554  21.725  0.00  0.00     0.014 C 
ATOM     19  C   UNL d   1     -34.317  20.523  21.911  0.00  0.00     0.001 C 
ATOM     20  C   UNL d   1     -34.772  21.960  21.556  0.00  0.00     0.001 C 
ATOM     21  C   UNL d   1     -33.638  22.834  22.148  0.00  0.00     0.014 C 
ENDBRANCH  14  17
ENDBRANCH   8   9
ENDBRANCH   3   8
BRANCH   7  22
ATOM     22  N   UNL d   1     -23.112  25.123  22.126  0.00  0.00    -0.308 N 
ATOM     23  C   UNL d   1     -21.874  25.011  22.646  0.00  0.00     0.325 C 
ATOM     24  O   UNL d   1     -21.214  24.012  22.434  0.00  0.00    -0.247 OA
ATOM     25  N   UNL d   1     -21.367  26.005  23.399  0.00  0.00    -0.309 N 
ATOM     26  H   UNL d   1     -21.920  26.767  23.633  0.00  0.00     0.170 HD
ATOM     27  H   UNL d   1     -23.609  25.951  22.228  0.00  0.00     0.170 HD
BRANCH  25  28
ATOM     28  C   UNL d   1     -20.042  25.940  23.846  0.00  0.00     0.036 A 
ATOM     29  C   UNL d   1     -19.000  25.910  22.929  0.00  0.00     0.029 A 
ATOM     30  C   UNL d   1     -17.693  25.845  23.372  0.00  0.00     0.002 A 
ATOM     31  C   UNL d   1     -17.423  25.812  24.727  0.00  0.00     0.000 A 
ATOM     32  C   UNL d   1     -18.459  25.843  25.643  0.00  0.00     0.002 A 
ATOM     33  C   UNL d   1     -19.767  25.912  25.206  0.00  0.00     0.029 A 
ENDBRANCH  25  28
ENDBRANCH   7  22
TORSDOF 5
ENDMDL
