MODEL 1
REMARK VINA RESULT:      -9.1      0.000      0.000
REMARK  10 active torsions:
REMARK  status: ('A' for Active; 'I' for Inactive)
REMARK    1  A    between atoms: C_2  and  C_3 
REMARK    2  A    between atoms: C_3  and  C_4 
REMARK    3  A    between atoms: C_4  and  O_6 
REMARK    4  A    between atoms: O_6  and  C_7 
REMARK    5  A    between atoms: C_9  and  N_10 
REMARK    6  A    between atoms: C_12  and  C_13 
REMARK    7  A    between atoms: C_23  and  C_24 
REMARK       I    between atoms: C_24  and  N_26 
REMARK    8  A    between atoms: N_26  and  C_27 
REMARK    9  A    between atoms: C_27  and  C_28 
REMARK   10  A    between atoms: C_27  and  C_30 
REMARK       I    between atoms: C_30  and  N_31 
ROOT
ATOM      1  C   UNL d   1     -29.177  21.886  23.620  0.00  0.00     0.087 A 
ATOM      2  C   UNL d   1     -28.001  22.344  23.051  0.00  0.00     0.073 A 
ATOM      3  C   UNL d   1     -26.949  22.750  23.861  0.00  0.00     0.104 A 
ATOM      4  C   UNL d   1     -27.073  22.699  25.250  0.00  0.00     0.146 A 
ATOM      5  F   UNL d   1     -26.045  23.095  26.032  0.00  0.00    -0.204 F 
ATOM      6  C   UNL d   1     -28.238  22.244  25.825  0.00  0.00     0.064 A 
ATOM      7  C   UNL d   1     -29.305  21.839  25.016  0.00  0.00     0.068 A 
ENDROOT
BRANCH   7   8
ATOM      8  C   UNL d   1     -30.555  21.357  25.627  0.00  0.00     0.255 C 
ATOM      9  O   UNL d   1     -31.148  22.052  26.429  0.00  0.00    -0.268 OA
ATOM     10  N   UNL d   1     -31.042  20.145  25.297  0.00  0.00    -0.344 N 
ATOM     11  H   UNL d   1     -30.570  19.589  24.657  0.00  0.00     0.163 HD
BRANCH  10  12
ATOM     12  C   UNL d   1     -32.286  19.664  25.904  0.00  0.00     0.176 C 
BRANCH  12  13
ATOM     13  C   UNL d   1     -32.105  18.214  26.358  0.00  0.00     0.030 C 
ATOM     14  C   UNL d   1     -30.618  17.929  26.574  0.00  0.00     0.007 C 
ENDBRANCH  12  13
BRANCH  12  15
ATOM     15  C   UNL d   1     -33.401  19.739  24.893  0.00  0.00     0.238 C 
ATOM     16  N   UNL d   1     -34.644  20.080  25.286  0.00  0.00    -0.368 N 
ATOM     17  H   UNL d   1     -34.822  20.277  26.219  0.00  0.00     0.159 HD
ATOM     18  H   UNL d   1     -35.362  20.129  24.635  0.00  0.00     0.159 HD
ATOM     19  O   UNL d   1     -33.179  19.492  23.726  0.00  0.00    -0.271 OA
ENDBRANCH  12  15
ENDBRANCH  10  12
ENDBRANCH   7   8
BRANCH   1  20
ATOM     20  O   UNL d   1     -30.205  21.488  22.829  0.00  0.00    -0.345 OA
BRANCH  20  21
ATOM     21  C   UNL d   1     -30.915  22.510  22.124  0.00  0.00     0.124 C 
ATOM     22  C   UNL d   1     -30.786  22.274  20.618  0.00  0.00     0.040 C 
BRANCH  21  23
ATOM     23  C   UNL d   1     -32.391  22.473  22.522  0.00  0.00     0.032 C 
BRANCH  23  24
ATOM     24  C   UNL d   1     -33.221  21.938  21.353  0.00  0.00    -0.002 C 
ATOM     25  C   UNL d   1     -34.633  22.522  21.421  0.00  0.00     0.005 C 
ENDBRANCH  23  24
ENDBRANCH  21  23
ENDBRANCH  20  21
ENDBRANCH   1  20
BRANCH   3  26
ATOM     26  N   UNL d   1     -25.764  23.212  23.284  0.00  0.00    -0.178 N 
ATOM     27  C   UNL d   1     -25.080  22.621  22.282  0.00  0.00     0.351 A 
ATOM     28  N   UNL d   1     -24.002  23.388  22.023  0.00  0.00    -0.288 N 
ATOM     29  O   UNL d   1     -25.382  21.587  21.714  0.00  0.00    -0.244 OA
ATOM     30  C   UNL d   1     -24.018  24.459  22.883  0.00  0.00     0.134 A 
ATOM     31  C   UNL d   1     -22.984  23.122  21.004  0.00  0.00     0.162 C 
ATOM     32  N   UNL d   1     -25.062  24.370  23.643  0.00  0.00    -0.149 NA
BRANCH  30  33
ATOM     33  C   UNL d   1     -22.988  25.558  22.934  0.00  0.00     0.049 C 
ATOM     34  C   UNL d   1     -23.652  26.860  23.388  0.00  0.00     0.018 C 
ATOM     35  C   UNL d   1     -21.884  25.177  23.923  0.00  0.00     0.018 C 
ENDBRANCH  30  33
ENDBRANCH   3  26
TORSDOF 10
ENDMDL
