MODEL 1
REMARK VINA RESULT:     -10.4      0.000      0.000
REMARK  6 active torsions:
REMARK  status: ('A' for Active; 'I' for Inactive)
REMARK    1  A    between atoms: O_2  and  C_3 
REMARK    2  A    between atoms: C_7  and  C_8 
REMARK    3  A    between atoms: C_11  and  N_12 
REMARK       I    between atoms: N_12  and  C_13 
REMARK    4  A    between atoms: C_13  and  C_15 
REMARK    5  A    between atoms: C_19  and  C_20 
REMARK    6  A    between atoms: C_20  and  O_22 
ROOT
ATOM      1  C   UNL d   1     -28.486  22.340  23.689  0.00  0.00    -0.023 A 
ATOM      2  C   UNL d   1     -27.851  22.972  24.755  0.00  0.00     0.014 A 
ATOM      3  C   UNL d   1     -26.514  23.301  24.666  0.00  0.00     0.034 A 
ATOM      4  C   UNL d   1     -25.800  23.001  23.513  0.00  0.00     0.074 A 
ATOM      5  C   UNL d   1     -26.433  22.373  22.444  0.00  0.00     0.143 A 
ATOM      6  F   UNL d   1     -25.737  22.088  21.321  0.00  0.00    -0.204 F 
ATOM      7  C   UNL d   1     -27.768  22.038  22.532  0.00  0.00     0.057 A 
ENDROOT
BRANCH   4   8
ATOM      8  N   UNL d   1     -24.445  23.335  23.424  0.00  0.00    -0.320 N 
ATOM      9  C   UNL d   1     -24.076  24.628  23.321  0.00  0.00     0.257 C 
ATOM     10  O   UNL d   1     -24.910  25.508  23.414  0.00  0.00    -0.267 OA
ATOM     11  H   UNL d   1     -23.771  22.638  23.437  0.00  0.00     0.169 HD
BRANCH   9  12
ATOM     12  C   UNL d   1     -22.659  24.975  23.102  0.00  0.00     0.056 A 
ATOM     13  C   UNL d   1     -22.043  24.933  21.865  0.00  0.00     0.093 A 
ATOM     14  S   UNL d   1     -20.363  25.420  22.045  0.00  0.00    -0.094 SA
ATOM     15  C   UNL d   1     -20.555  25.652  23.724  0.00  0.00     0.052 A 
ATOM     16  C   UNL d   1     -21.802  25.385  24.114  0.00  0.00     0.026 A 
BRANCH  13  17
ATOM     17  C   UNL d   1     -22.688  24.545  20.606  0.00  0.00     0.184 C 
ATOM     18  O   UNL d   1     -23.132  23.421  20.470  0.00  0.00    -0.646 OA
BRANCH  17  19
ATOM     19  O   UNL d   1     -22.788  25.435  19.597  0.00  0.00    -0.772 OA
ATOM     20  H   UNL d   1     -22.130  25.374  18.891  0.00  0.00     0.167 HD
ENDBRANCH  17  19
ENDBRANCH  13  17
ENDBRANCH   9  12
ENDBRANCH   4   8
BRANCH   1  21
ATOM     21  C   UNL d   1     -29.924  21.986  23.783  0.00  0.00    -0.023 A 
ATOM     22  C   UNL d   1     -30.799  22.341  22.758  0.00  0.00     0.012 A 
ATOM     23  C   UNL d   1     -32.135  22.007  22.845  0.00  0.00     0.004 A 
ATOM     24  C   UNL d   1     -32.612  21.329  23.952  0.00  0.00     0.037 A 
ATOM     25  C   UNL d   1     -31.747  20.975  24.979  0.00  0.00     0.069 A 
ATOM     26  C   UNL d   1     -30.404  21.302  24.898  0.00  0.00     0.049 A 
BRANCH  25  27
ATOM     27  O   UNL d   1     -32.219  20.308  26.065  0.00  0.00    -0.356 OA
ATOM     28  C   UNL d   1     -31.652  19.025  26.336  0.00  0.00     0.210 C 
ENDBRANCH  25  27
ENDBRANCH   1  21
TORSDOF 6
ENDMDL
