MODEL 1
REMARK VINA RESULT:     -11.4      0.000      0.000
REMARK  9 active torsions:
REMARK  status: ('A' for Active; 'I' for Inactive)
REMARK    1  A    between atoms: O_2  and  C_3 
REMARK    2  A    between atoms: C_5  and  C_6 
REMARK    3  A    between atoms: C_8  and  C_9 
REMARK    4  A    between atoms: C_9  and  O_11 
REMARK    5  A    between atoms: C_21  and  O_22 
REMARK    6  A    between atoms: O_22  and  C_23 
REMARK    7  A    between atoms: C_23  and  C_24 
REMARK       I    between atoms: C_24  and  N_26 
REMARK    8  A    between atoms: N_26  and  C_27 
REMARK    9  A    between atoms: C_30  and  C_31 
ROOT
ATOM      1  C   UNL d   1     -25.605  23.092  23.054  0.00  0.00     0.102 A 
ATOM      2  C   UNL d   1     -26.957  22.957  23.312  0.00  0.00     0.053 A 
ATOM      3  C   UNL d   1     -27.734  22.110  22.523  0.00  0.00    -0.004 A 
ATOM      4  C   UNL d   1     -27.145  21.406  21.473  0.00  0.00     0.017 A 
ATOM      5  C   UNL d   1     -25.797  21.546  21.217  0.00  0.00     0.040 A 
ATOM      6  C   UNL d   1     -25.023  22.389  22.002  0.00  0.00     0.102 A 
ENDROOT
BRANCH   6   7
ATOM      7  O   UNL d   1     -23.695  22.524  21.747  0.00  0.00    -0.339 OA
BRANCH   7   8
ATOM      8  C   UNL d   1     -23.301  23.632  20.934  0.00  0.00     0.278 C 
BRANCH   8   9
ATOM      9  C   UNL d   1     -22.287  24.463  21.677  0.00  0.00     0.246 C 
ATOM     10  O   UNL d   1     -21.686  25.345  21.100  0.00  0.00    -0.271 OA
ATOM     11  N   UNL d   1     -22.048  24.226  22.982  0.00  0.00    -0.325 N 
ATOM     12  H   UNL d   1     -22.479  23.480  23.426  0.00  0.00     0.169 HD
BRANCH  11  13
ATOM     13  C   UNL d   1     -21.177  25.058  23.695  0.00  0.00     0.034 A 
ATOM     14  C   UNL d   1     -21.653  26.221  24.285  0.00  0.00     0.030 A 
ATOM     15  C   UNL d   1     -20.792  27.040  24.988  0.00  0.00     0.018 A 
ATOM     16  C   UNL d   1     -19.456  26.702  25.104  0.00  0.00     0.048 A 
ATOM     17  C   UNL d   1     -18.979  25.542  24.522  0.00  0.00     0.018 A 
ATOM     18  C   UNL d   1     -19.835  24.722  23.813  0.00  0.00     0.030 A 
BRANCH  16  19
ATOM     19  C   UNL d   1     -18.517  27.599  25.872  0.00  0.00     0.417 C 
ATOM     20  F   UNL d   1     -17.472  28.003  25.036  0.00  0.00    -0.166 F 
ATOM     21  F   UNL d   1     -19.215  28.724  26.325  0.00  0.00    -0.166 F 
ATOM     22  F   UNL d   1     -17.997  26.900  26.967  0.00  0.00    -0.166 F 
ENDBRANCH  16  19
ENDBRANCH  11  13
ENDBRANCH   8   9
ENDBRANCH   7   8
ENDBRANCH   6   7
BRANCH   1  23
ATOM     23  O   UNL d   1     -24.844  23.913  23.827  0.00  0.00    -0.353 OA
ATOM     24  C   UNL d   1     -25.226  25.288  23.884  0.00  0.00     0.210 C 
ENDBRANCH   1  23
BRANCH   3  25
ATOM     25  C   UNL d   1     -29.181  21.959  22.799  0.00  0.00     0.069 A 
ATOM     26  N   UNL d   1     -30.036  22.096  21.807  0.00  0.00    -0.247 NA
ATOM     27  C   UNL d   1     -31.353  21.969  21.978  0.00  0.00     0.068 A 
ATOM     28  C   UNL d   1     -31.878  21.687  23.264  0.00  0.00     0.010 A 
ATOM     29  C   UNL d   1     -32.242  22.115  20.897  0.00  0.00     0.032 A 
ATOM     30  C   UNL d   1     -30.947  21.535  24.384  0.00  0.00     0.052 A 
ATOM     31  C   UNL d   1     -33.260  21.559  23.439  0.00  0.00     0.015 A 
ATOM     32  C   UNL d   1     -29.595  21.679  24.111  0.00  0.00     0.051 A 
ATOM     33  C   UNL d   1     -34.092  21.709  22.369  0.00  0.00     0.001 A 
ATOM     34  C   UNL d   1     -33.582  21.985  21.103  0.00  0.00     0.002 A 
BRANCH  30  35
ATOM     35  C   UNL d   1     -31.429  21.241  25.750  0.00  0.00     0.177 C 
ATOM     36  O   UNL d   1     -31.650  22.151  26.525  0.00  0.00    -0.646 OA
BRANCH  35  37
ATOM     37  O   UNL d   1     -31.625  19.965  26.135  0.00  0.00    -0.773 OA
ATOM     38  H   UNL d   1     -30.843  19.397  26.188  0.00  0.00     0.167 HD
ENDBRANCH  35  37
ENDBRANCH  30  35
ENDBRANCH   3  25
TORSDOF 9
ENDMDL
