MODEL 1
REMARK VINA RESULT:     -11.7      0.000      0.000
REMARK  5 active torsions:
REMARK  status: ('A' for Active; 'I' for Inactive)
REMARK    1  A    between atoms: C_2  and  O_3 
REMARK    2  A    between atoms: C_2  and  C_4 
REMARK    3  A    between atoms: C_8  and  N_9 
REMARK    4  A    between atoms: C_17  and  N_18 
REMARK       I    between atoms: N_18  and  C_19 
REMARK    5  A    between atoms: C_19  and  C_21 
ROOT
ATOM      1  N   UNL d   1     -29.711  21.889  23.996  0.00  0.00    -0.238 N 
ATOM      2  N   UNL d   1     -29.056  22.216  25.192  0.00  0.00    -0.179 NA
ATOM      3  C   UNL d   1     -27.790  22.426  24.923  0.00  0.00     0.150 A 
ATOM      4  C   UNL d   1     -27.601  22.239  23.555  0.00  0.00     0.008 A 
ATOM      5  C   UNL d   1     -28.798  21.909  23.008  0.00  0.00     0.046 A 
ATOM      6  C   UNL d   1     -29.008  21.622  21.542  0.00  0.00     0.060 C 
ATOM      7  C   UNL d   1     -27.640  21.359  20.899  0.00  0.00     0.008 C 
ATOM      8  C   UNL d   1     -26.672  22.483  21.282  0.00  0.00     0.030 C 
ATOM      9  C   UNL d   1     -26.318  22.370  22.770  0.00  0.00     0.121 C 
ENDROOT
BRANCH   9  10
ATOM     10  N   UNL d   1     -25.597  23.570  23.199  0.00  0.00    -0.347 N 
ATOM     11  C   UNL d   1     -24.312  23.750  22.837  0.00  0.00     0.273 C 
ATOM     12  O   UNL d   1     -23.750  22.916  22.154  0.00  0.00    -0.266 OA
ATOM     13  H   UNL d   1     -26.046  24.236  23.744  0.00  0.00     0.163 HD
BRANCH  11  14
ATOM     14  C   UNL d   1     -23.582  24.967  23.271  0.00  0.00     0.160 A 
ATOM     15  C   UNL d   1     -22.269  25.036  23.776  0.00  0.00     0.010 A 
ATOM     16  C   UNL d   1     -22.067  26.352  24.023  0.00  0.00     0.087 A 
ATOM     17  C   UNL d   1     -21.252  23.955  23.999  0.00  0.00     0.044 C 
ATOM     18  O   UNL d   1     -23.193  26.979  23.687  0.00  0.00    -0.217 OA
ATOM     19  C   UNL d   1     -20.785  26.913  24.580  0.00  0.00     0.068 C 
ATOM     20  N   UNL d   1     -24.030  26.204  23.271  0.00  0.00    -0.122 NA
ATOM     21  C   UNL d   1     -19.973  25.757  25.179  0.00  0.00     0.007 C 
ATOM     22  C   UNL d   1     -19.875  24.615  24.164  0.00  0.00     0.005 C 
ENDBRANCH  11  14
ENDBRANCH   9  10
BRANCH   1  23
ATOM     23  C   UNL d   1     -31.075  21.595  23.855  0.00  0.00     0.059 A 
ATOM     24  C   UNL d   1     -31.696  20.732  24.750  0.00  0.00     0.031 A 
ATOM     25  C   UNL d   1     -33.042  20.442  24.619  0.00  0.00     0.003 A 
ATOM     26  C   UNL d   1     -33.775  21.000  23.592  0.00  0.00     0.018 A 
ATOM     27  C   UNL d   1     -33.159  21.864  22.684  0.00  0.00     0.040 A 
ATOM     28  C   UNL d   1     -31.803  22.160  22.820  0.00  0.00     0.050 A 
BRANCH  27  29
ATOM     29  C   UNL d   1     -33.942  22.464  21.584  0.00  0.00     0.176 C 
ATOM     30  O   UNL d   1     -33.750  22.110  20.438  0.00  0.00    -0.646 OA
BRANCH  29  31
ATOM     31  O   UNL d   1     -34.869  23.404  21.852  0.00  0.00    -0.773 OA
ATOM     32  H   UNL d   1     -35.629  23.454  21.257  0.00  0.00     0.167 HD
ENDBRANCH  29  31
ENDBRANCH  27  29
ENDBRANCH   1  23
TORSDOF 5
ENDMDL
