MODEL 1
REMARK VINA RESULT:      -9.5      0.000      0.000
REMARK  6 active torsions:
REMARK  status: ('A' for Active; 'I' for Inactive)
REMARK    1  A    between atoms: O_2  and  C_3 
REMARK    2  A    between atoms: C_3  and  C_5 
REMARK    3  A    between atoms: C_8  and  N_9 
REMARK    4  A    between atoms: C_11  and  C_12 
REMARK    5  A    between atoms: CA_13  and  C_14 
REMARK    6  A    between atoms: C_14  and  OXT_16 
ROOT
ATOM      1  N   UNL d   1     -25.845  24.002  23.874  0.00  0.00    -0.225 N 
ATOM      2  C   UNL d   1     -24.626  23.495  23.565  0.00  0.00     0.155 A 
ATOM      3  C   UNL d   1     -23.818  24.558  23.288  0.00  0.00     0.116 A 
ATOM      4  N   UNL d   1     -24.534  25.687  23.427  0.00  0.00    -0.129 NA
ATOM      5  N   UNL d   1     -25.738  25.396  23.773  0.00  0.00    -0.061 NA
ENDROOT
BRANCH   3   6
ATOM      6  C   UNL d   1     -22.393  24.483  22.899  0.00  0.00     0.098 A 
ATOM      7  C   UNL d   1     -21.322  24.774  23.876  0.00  0.00     0.264 A 
ATOM      8  N   UNL d   1     -20.037  24.686  23.474  0.00  0.00    -0.275 N 
ATOM      9  O   UNL d   1     -21.594  25.082  25.020  0.00  0.00    -0.267 OA
ATOM     10  C   UNL d   1     -19.734  24.350  22.208  0.00  0.00     0.327 A 
ATOM     11  H   UNL d   1     -19.324  24.872  24.105  0.00  0.00     0.173 HD
ATOM     12  N   UNL d   1     -20.680  24.084  21.293  0.00  0.00    -0.302 N 
ATOM     13  O   UNL d   1     -18.565  24.286  21.882  0.00  0.00    -0.247 OA
ATOM     14  CA  UNL d   1     -22.023  24.142  21.612  0.00  0.00     0.128 A 
ATOM     15  H   UNL d   1     -20.415  23.845  20.391  0.00  0.00     0.171 HD
BRANCH  14  16
ATOM     16  C   UNL d   1     -23.048  23.847  20.593  0.00  0.00     0.194 C 
ATOM     17  O   UNL d   1     -23.577  22.753  20.562  0.00  0.00    -0.645 OA
BRANCH  16  18
ATOM     18  OXT UNL d   1     -23.399  24.792  19.697  0.00  0.00    -0.772 OA
ATOM     19  HXT UNL d   1     -22.716  25.087  19.080  0.00  0.00     0.167 HD
ENDBRANCH  16  18
ENDBRANCH  14  16
ENDBRANCH   3   6
BRANCH   1  20
ATOM     20  C   UNL d   1     -26.986  23.274  24.230  0.00  0.00     0.059 A 
ATOM     21  C   UNL d   1     -27.982  23.042  23.289  0.00  0.00     0.032 A 
ATOM     22  C   UNL d   1     -29.106  22.325  23.636  0.00  0.00     0.020 A 
ATOM     23  C   UNL d   1     -29.244  21.831  24.937  0.00  0.00     0.039 A 
ATOM     24  C   UNL d   1     -28.240  22.067  25.880  0.00  0.00     0.020 A 
ATOM     25  C   UNL d   1     -27.117  22.780  25.524  0.00  0.00     0.032 A 
BRANCH  23  26
ATOM     26  C   UNL d   1     -30.446  21.065  25.313  0.00  0.00     0.292 C 
ATOM     27  O   UNL d   1     -31.398  21.018  24.559  0.00  0.00    -0.259 OA
BRANCH  26  28
ATOM     28  O   UNL d   1     -30.489  20.415  26.492  0.00  0.00    -0.323 OA
ATOM     29  C   UNL d   1     -31.177  19.136  26.515  0.00  0.00     0.213 C 
ENDBRANCH  26  28
ENDBRANCH  23  26
ENDBRANCH   1  20
TORSDOF 6
ENDMDL
