MODEL 1
REMARK VINA RESULT:     -10.9      0.000      0.000
REMARK  6 active torsions:
REMARK  status: ('A' for Active; 'I' for Inactive)
REMARK    1  A    between atoms: O_2  and  C_3 
REMARK    2  A    between atoms: C_6  and  C_7 
REMARK    3  A    between atoms: C_10  and  N_11 
REMARK       I    between atoms: N_11  and  C_12 
REMARK    4  A    between atoms: C_12  and  C_14 
REMARK    5  A    between atoms: C_15  and  C_16 
REMARK    6  A    between atoms: C_16  and  O_18 
ROOT
ATOM      1  C   UNL d   1     -25.440  23.354  23.326  0.00  0.00    -0.023 A 
ATOM      2  C   UNL d   1     -26.212  23.665  24.444  0.00  0.00     0.014 A 
ATOM      3  C   UNL d   1     -27.440  23.064  24.623  0.00  0.00     0.034 A 
ATOM      4  C   UNL d   1     -27.907  22.145  23.691  0.00  0.00     0.074 A 
ATOM      5  C   UNL d   1     -27.136  21.828  22.576  0.00  0.00     0.143 A 
ATOM      6  F   UNL d   1     -27.592  20.934  21.672  0.00  0.00    -0.204 F 
ATOM      7  C   UNL d   1     -25.906  22.427  22.394  0.00  0.00     0.057 A 
ENDROOT
BRANCH   4   8
ATOM      8  N   UNL d   1     -29.153  21.537  23.874  0.00  0.00    -0.321 N 
ATOM      9  C   UNL d   1     -30.257  22.086  23.330  0.00  0.00     0.253 C 
ATOM     10  O   UNL d   1     -30.158  23.051  22.597  0.00  0.00    -0.268 OA
ATOM     11  H   UNL d   1     -29.222  20.721  24.393  0.00  0.00     0.169 HD
BRANCH   9  12
ATOM     12  C   UNL d   1     -31.586  21.518  23.625  0.00  0.00     0.023 C 
ATOM     13  C   UNL d   1     -32.757  21.526  22.670  0.00  0.00     0.045 C 
ATOM     14  C   UNL d   1     -33.737  20.469  23.235  0.00  0.00     0.010 C 
ATOM     15  C   UNL d   1     -33.363  20.461  24.734  0.00  0.00     0.046 C 
ATOM     16  C   UNL d   1     -31.925  20.926  24.779  0.00  0.00     0.027 C 
BRANCH  16  17
ATOM     17  C   UNL d   1     -31.022  20.754  25.931  0.00  0.00     0.172 C 
ATOM     18  O   UNL d   1     -30.769  21.699  26.652  0.00  0.00    -0.646 OA
BRANCH  17  19
ATOM     19  O   UNL d   1     -30.476  19.548  26.186  0.00  0.00    -0.773 OA
ATOM     20  H   UNL d   1     -29.818  19.504  26.893  0.00  0.00     0.167 HD
ENDBRANCH  17  19
ENDBRANCH  16  17
ENDBRANCH   9  12
ENDBRANCH   4   8
BRANCH   1  21
ATOM     21  C   UNL d   1     -24.121  24.004  23.131  0.00  0.00    -0.026 A 
ATOM     22  C   UNL d   1     -23.991  25.382  23.294  0.00  0.00     0.015 A 
ATOM     23  C   UNL d   1     -22.763  25.984  23.111  0.00  0.00     0.037 A 
ATOM     24  C   UNL d   1     -21.657  25.218  22.766  0.00  0.00     0.068 A 
ATOM     25  C   UNL d   1     -21.785  23.846  22.603  0.00  0.00     0.037 A 
ATOM     26  C   UNL d   1     -23.008  23.238  22.789  0.00  0.00     0.015 A 
BRANCH  24  27
ATOM     27  O   UNL d   1     -20.450  25.814  22.587  0.00  0.00    -0.356 OA
ATOM     28  C   UNL d   1     -19.293  24.985  22.717  0.00  0.00     0.210 C 
ENDBRANCH  24  27
ENDBRANCH   1  21
TORSDOF 6
ENDMDL
