MODEL 1
REMARK VINA RESULT:      -9.0      0.000      0.000
REMARK  7 active torsions:
REMARK  status: ('A' for Active; 'I' for Inactive)
REMARK    1  A    between atoms: O_2  and  C_3 
REMARK    2  A    between atoms: C_8  and  N_9 
REMARK       I    between atoms: N_9  and  C_10 
REMARK    3  A    between atoms: C_10  and  C_12 
REMARK    4  A    between atoms: C_16  and  N_17 
REMARK    5  A    between atoms: C_28  and  O_29 
REMARK    6  A    between atoms: O_29  and  C_30 
REMARK    7  A    between atoms: C_30  and  C_32 
ROOT
ATOM      1  C   UNL d   1     -19.490  25.006  22.691  0.00  0.00     0.068 A 
ATOM      2  C   UNL d   1     -20.085  24.690  21.465  0.00  0.00     0.064 A 
ATOM      3  C   UNL d   1     -21.371  24.197  21.432  0.00  0.00     0.146 A 
ATOM      4  F   UNL d   1     -21.947  23.897  20.246  0.00  0.00    -0.204 F 
ATOM      5  C   UNL d   1     -22.080  24.005  22.617  0.00  0.00     0.104 A 
ATOM      6  C   UNL d   1     -21.494  24.311  23.839  0.00  0.00     0.073 A 
ATOM      7  C   UNL d   1     -20.203  24.808  23.883  0.00  0.00     0.087 A 
ENDROOT
BRANCH   1   8
ATOM      8  C   UNL d   1     -18.118  25.540  22.730  0.00  0.00     0.260 C 
ATOM      9  N   UNL d   1     -17.879  26.744  23.287  0.00  0.00    -0.305 N 
ATOM     10  H   UNL d   1     -18.610  27.259  23.662  0.00  0.00     0.170 HD
ATOM     11  O   UNL d   1     -17.202  24.894  22.259  0.00  0.00    -0.267 OA
BRANCH   9  12
ATOM     12  C   UNL d   1     -16.583  27.247  23.322  0.00  0.00     0.166 A 
ATOM     13  C   UNL d   1     -15.752  26.997  24.422  0.00  0.00     0.132 A 
ATOM     14  C   UNL d   1     -14.468  27.518  24.404  0.00  0.00     0.158 A 
ATOM     15  N   UNL d   1     -14.076  28.235  23.362  0.00  0.00    -0.251 NA
ATOM     16  C   UNL d   1     -14.886  28.456  22.347  0.00  0.00     0.235 A 
ATOM     17  N   UNL d   1     -16.113  27.977  22.317  0.00  0.00    -0.221 NA
BRANCH  13  18
ATOM     18  O   UNL d   1     -16.194  26.260  25.476  0.00  0.00    -0.351 OA
ATOM     19  C   UNL d   1     -15.674  24.934  25.603  0.00  0.00     0.210 C 
ENDBRANCH  13  18
ENDBRANCH   9  12
ENDBRANCH   1   8
BRANCH   7  20
ATOM     20  O   UNL d   1     -19.630  25.107  25.076  0.00  0.00    -0.345 OA
BRANCH  20  21
ATOM     21  C   UNL d   1     -19.847  26.424  25.589  0.00  0.00     0.129 C 
ATOM     22  C   UNL d   1     -21.347  26.724  25.601  0.00  0.00     0.040 C 
BRANCH  21  23
ATOM     23  C   UNL d   1     -19.297  26.512  27.013  0.00  0.00     0.015 C 
ATOM     24  C   UNL d   1     -20.418  26.218  28.012  0.00  0.00     0.007 C 
ATOM     25  C   UNL d   1     -19.868  26.306  29.437  0.00  0.00     0.000 C 
ATOM     26  C   UNL d   1     -19.320  27.713  29.687  0.00  0.00     0.000 C 
ATOM     27  C   UNL d   1     -18.198  28.007  28.688  0.00  0.00     0.000 C 
ATOM     28  C   UNL d   1     -18.748  27.919  27.263  0.00  0.00     0.007 C 
ENDBRANCH  21  23
ENDBRANCH  20  21
ENDBRANCH   7  20
BRANCH   5  29
ATOM     29  N   UNL d   1     -23.383  23.505  22.577  0.00  0.00    -0.178 N 
ATOM     30  C   UNL d   1     -24.454  24.009  23.226  0.00  0.00     0.351 A 
ATOM     31  N   UNL d   1     -25.515  23.253  22.897  0.00  0.00    -0.284 N 
ATOM     32  O   UNL d   1     -24.458  24.970  23.973  0.00  0.00    -0.244 OA
ATOM     33  C   UNL d   1     -25.085  22.244  22.058  0.00  0.00     0.131 A 
ATOM     34  C   UNL d   1     -26.910  23.444  23.309  0.00  0.00     0.135 C 
ATOM     35  N   UNL d   1     -23.822  22.390  21.847  0.00  0.00    -0.149 NA
ATOM     36  C   UNL d   1     -25.990  21.163  21.516  0.00  0.00     0.081 C 
ATOM     37  C   UNL d   1     -27.441  21.641  21.657  0.00  0.00     0.009 C 
ATOM     38  C   UNL d   1     -27.669  22.130  23.091  0.00  0.00     0.021 C 
ENDBRANCH   5  29
TORSDOF 7
ENDMDL
