MODEL 1
REMARK VINA RESULT:     -11.5      0.000      0.000
REMARK  4 active torsions:
REMARK  status: ('A' for Active; 'I' for Inactive)
REMARK    1  A    between atoms: N_7  and  C_8 
REMARK    2  A    between atoms: C_13  and  C_14 
REMARK    3  A    between atoms: C_20  and  C_21 
REMARK    4  A    between atoms: C_21  and  O_23 
ROOT
ATOM      1  C   UNL d   1     -24.138  23.376  22.389  0.00  0.00     0.123 A 
ATOM      2  C   UNL d   1     -24.812  24.182  23.300  0.00  0.00     0.186 A 
ATOM      3  F   UNL d   1     -24.213  25.289  23.793  0.00  0.00    -0.200 F 
ATOM      4  C   UNL d   1     -26.095  23.857  23.697  0.00  0.00     0.174 A 
ATOM      5  F   UNL d   1     -26.751  24.643  24.578  0.00  0.00    -0.202 F 
ATOM      6  C   UNL d   1     -26.711  22.708  23.190  0.00  0.00     0.093 A 
ATOM      7  C   UNL d   1     -26.028  21.897  22.278  0.00  0.00     0.174 A 
ATOM      8  F   UNL d   1     -26.620  20.787  21.785  0.00  0.00    -0.202 F 
ATOM      9  C   UNL d   1     -24.747  22.233  21.882  0.00  0.00     0.186 A 
ATOM     10  F   UNL d   1     -24.085  21.450  21.002  0.00  0.00    -0.200 F 
ENDROOT
BRANCH   6  11
ATOM     11  C   UNL d   1     -28.080  22.353  23.616  0.00  0.00     0.145 A 
ATOM     12  N   UNL d   1     -29.192  22.401  22.817  0.00  0.00    -0.337 N 
ATOM     13  C   UNL d   1     -30.262  21.998  23.580  0.00  0.00     0.080 A 
ATOM     14  H   UNL d   1     -29.219  22.669  21.885  0.00  0.00     0.167 HD
ATOM     15  C   UNL d   1     -29.751  21.710  24.858  0.00  0.00     0.087 A 
ATOM     16  C   UNL d   1     -31.633  21.841  23.328  0.00  0.00     0.066 A 
ATOM     17  N   UNL d   1     -28.414  21.941  24.814  0.00  0.00    -0.228 NA
ATOM     18  C   UNL d   1     -30.616  21.270  25.865  0.00  0.00     0.034 A 
ATOM     19  C   UNL d   1     -31.961  21.121  25.604  0.00  0.00     0.003 A 
ATOM     20  C   UNL d   1     -32.474  21.401  24.351  0.00  0.00     0.021 A 
BRANCH  16  21
ATOM     21  C   UNL d   1     -32.180  22.140  21.994  0.00  0.00     0.178 C 
ATOM     22  O   UNL d   1     -31.435  22.234  21.038  0.00  0.00    -0.646 OA
BRANCH  21  23
ATOM     23  O   UNL d   1     -33.507  22.309  21.832  0.00  0.00    -0.773 OA
ATOM     24  H   UNL d   1     -33.933  22.989  22.372  0.00  0.00     0.167 HD
ENDBRANCH  21  23
ENDBRANCH  16  21
ENDBRANCH   6  11
BRANCH   1  25
ATOM     25  N   UNL d   1     -22.839  23.713  21.985  0.00  0.00    -0.315 N 
ATOM     26  C   UNL d   1     -22.475  24.122  20.734  0.00  0.00     0.013 A 
ATOM     27  C   UNL d   1     -23.399  24.288  19.555  0.00  0.00     0.068 C 
ATOM     28  C   UNL d   1     -21.146  24.354  20.737  0.00  0.00     0.027 A 
ATOM     29  C   UNL d   1     -20.670  24.071  22.032  0.00  0.00     0.027 A 
ATOM     30  C   UNL d   1     -21.725  23.680  22.775  0.00  0.00     0.013 A 
ATOM     31  C   UNL d   1     -21.684  23.277  24.226  0.00  0.00     0.068 C 
ENDBRANCH   1  25
TORSDOF 4
ENDMDL
