MODEL 1
REMARK VINA RESULT:      -8.7      0.000      0.000
REMARK  7 active torsions:
REMARK  status: ('A' for Active; 'I' for Inactive)
REMARK    1  A    between atoms: C_2  and  N_3 
REMARK    2  A    between atoms: C_4  and  C_5 
REMARK    3  A    between atoms: C_5  and  O_6 
REMARK    4  A    between atoms: N_8  and  C_9 
REMARK    5  A    between atoms: C_12  and  C_13 
REMARK    6  A    between atoms: N_17  and  C_18 
REMARK    7  A    between atoms: C_20  and  O_21 
ROOT
ATOM      1  C   UNL d   1     -28.786  22.127  22.338  0.00  0.00     0.103 A 
ATOM      2  C   UNL d   1     -28.059  23.037  23.089  0.00  0.00     0.048 A 
ATOM      3  C   UNL d   1     -26.719  23.260  22.783  0.00  0.00    -0.010 A 
ATOM      4  C   UNL d   1     -25.900  24.209  23.540  0.00  0.00    -0.027 A 
ATOM      5  C   UNL d   1     -24.613  24.387  23.201  0.00  0.00     0.109 A 
ATOM      6  N   UNL d   1     -24.028  23.708  22.167  0.00  0.00    -0.288 N 
ATOM      7  C   UNL d   1     -24.707  22.821  21.414  0.00  0.00     0.263 A 
ATOM      8  O   UNL d   1     -24.152  22.240  20.498  0.00  0.00    -0.267 OA
ATOM      9  C   UNL d   1     -26.117  22.558  21.712  0.00  0.00     0.046 A 
ATOM     10  C   UNL d   1     -26.870  21.645  20.970  0.00  0.00     0.062 A 
ATOM     11  C   UNL d   1     -28.183  21.437  21.282  0.00  0.00     0.146 A 
ATOM     12  F   UNL d   1     -28.909  20.554  20.562  0.00  0.00    -0.204 F 
ENDROOT
BRANCH   1  13
ATOM     13  N   UNL d   1     -30.131  21.898  22.638  0.00  0.00    -0.178 N 
ATOM     14  N   UNL d   1     -30.645  21.459  23.865  0.00  0.00    -0.147 NA
ATOM     15  C   UNL d   1     -31.932  21.365  23.753  0.00  0.00     0.154 A 
ATOM     16  N   UNL d   1     -32.293  21.731  22.479  0.00  0.00    -0.283 N 
ATOM     17  C   UNL d   1     -31.176  22.062  21.801  0.00  0.00     0.351 A 
ATOM     18  O   UNL d   1     -31.120  22.437  20.643  0.00  0.00    -0.244 OA
BRANCH  15  19
ATOM     19  C   UNL d   1     -32.878  20.928  24.841  0.00  0.00     0.244 C 
BRANCH  19  20
ATOM     20  O   UNL d   1     -32.207  20.973  26.102  0.00  0.00    -0.393 OA
ATOM     21  H   UNL d   1     -31.843  20.123  26.385  0.00  0.00     0.209 HD
ENDBRANCH  19  20
ENDBRANCH  15  19
BRANCH  16  22
ATOM     22  C   UNL d   1     -33.658  21.759  21.949  0.00  0.00     0.131 C 
ATOM     23  C   UNL d   1     -34.046  20.361  21.464  0.00  0.00     0.027 C 
ENDBRANCH  16  22
ENDBRANCH   1  13
BRANCH   4  24
ATOM     24  C   UNL d   1     -26.497  24.981  24.689  0.00  0.00     0.013 C 
ATOM     25  C   UNL d   1     -26.768  24.031  25.856  0.00  0.00     0.015 C 
ATOM     26  C   UNL d   1     -25.518  26.070  25.134  0.00  0.00     0.015 C 
ENDBRANCH   4  24
BRANCH   6  27
ATOM     27  C   UNL d   1     -22.682  23.948  21.878  0.00  0.00     0.053 A 
ATOM     28  C   UNL d   1     -21.674  23.456  22.707  0.00  0.00    -0.017 A 
ATOM     29  C   UNL d   1     -20.356  23.708  22.387  0.00  0.00     0.128 A 
ATOM     30  C   UNL d   1     -22.020  22.657  23.937  0.00  0.00     0.052 C 
ATOM     31  N   UNL d   1     -20.042  24.406  21.311  0.00  0.00    -0.237 NA
ATOM     32  C   UNL d   1     -20.967  24.891  20.499  0.00  0.00     0.163 A 
ATOM     33  C   UNL d   1     -22.314  24.680  20.753  0.00  0.00     0.088 A 
BRANCH  32  34
ATOM     34  O   UNL d   1     -20.595  25.602  19.405  0.00  0.00    -0.345 OA
ATOM     35  H   UNL d   1     -20.094  25.090  18.754  0.00  0.00     0.219 HD
ENDBRANCH  32  34
ENDBRANCH   6  27
TORSDOF 7
ENDMDL
