MODEL 1
REMARK VINA RESULT:     -10.9      0.000      0.000
REMARK  6 active torsions:
REMARK  status: ('A' for Active; 'I' for Inactive)
REMARK    1  A    between atoms: C_2  and  O_3 
REMARK    2  A    between atoms: C_2  and  C_32 
REMARK    3  A    between atoms: O_3  and  C_4 
REMARK    4  A    between atoms: C_6  and  N_7 
REMARK    5  A    between atoms: C_20  and  C_21 
REMARK       I    between atoms: C_21  and  N_23 
REMARK    6  A    between atoms: N_23  and  C_24 
ROOT
ATOM      1  C   UNL d   1     -24.669  23.339  22.658  0.00  0.00     0.087 A 
ATOM      2  C   UNL d   1     -25.923  22.787  22.859  0.00  0.00     0.073 A 
ATOM      3  C   UNL d   1     -26.769  23.316  23.823  0.00  0.00     0.104 A 
ATOM      4  C   UNL d   1     -26.363  24.408  24.590  0.00  0.00     0.146 A 
ATOM      5  F   UNL d   1     -27.195  24.922  25.525  0.00  0.00    -0.204 F 
ATOM      6  C   UNL d   1     -25.116  24.961  24.403  0.00  0.00     0.064 A 
ATOM      7  C   UNL d   1     -24.257  24.434  23.432  0.00  0.00     0.068 A 
ENDROOT
BRANCH   7   8
ATOM      8  C   UNL d   1     -22.926  25.026  23.224  0.00  0.00     0.259 C 
ATOM      9  O   UNL d   1     -22.815  26.081  22.630  0.00  0.00    -0.267 OA
ATOM     10  N   UNL d   1     -21.828  24.397  23.690  0.00  0.00    -0.321 N 
ATOM     11  H   UNL d   1     -21.906  23.516  24.088  0.00  0.00     0.169 HD
BRANCH  10  12
ATOM     12  C   UNL d   1     -20.575  25.016  23.599  0.00  0.00     0.057 A 
ATOM     13  C   UNL d   1     -20.159  25.896  24.590  0.00  0.00     0.063 A 
ATOM     14  C   UNL d   1     -18.922  26.504  24.496  0.00  0.00     0.068 A 
ATOM     15 CL   UNL d   1     -21.191  26.230  25.943  0.00  0.00    -0.082 Cl
ATOM     16  C   UNL d   1     -18.097  26.238  23.417  0.00  0.00     0.118 A 
ATOM     17  C   UNL d   1     -18.511  25.360  22.428  0.00  0.00     0.044 A 
ATOM     18  F   UNL d   1     -16.889  26.834  23.326  0.00  0.00    -0.206 F 
ATOM     19  C   UNL d   1     -19.744  24.745  22.519  0.00  0.00     0.034 A 
ENDBRANCH  10  12
ENDBRANCH   7   8
BRANCH   1  20
ATOM     20  O   UNL d   1     -23.842  22.823  21.715  0.00  0.00    -0.336 OA
BRANCH  20  21
ATOM     21  C   UNL d   1     -23.921  23.385  20.403  0.00  0.00     0.232 C 
ATOM     22  C   UNL d   1     -22.523  23.797  19.939  0.00  0.00     0.049 C 
BRANCH  21  23
ATOM     23  C   UNL d   1     -24.495  22.346  19.437  0.00  0.00     0.413 C 
ATOM     24  F   UNL d   1     -24.582  22.899  18.156  0.00  0.00    -0.168 F 
ATOM     25  F   UNL d   1     -23.657  21.227  19.407  0.00  0.00    -0.168 F 
ATOM     26  F   UNL d   1     -25.769  21.963  19.868  0.00  0.00    -0.168 F 
ENDBRANCH  21  23
ENDBRANCH  20  21
ENDBRANCH   1  20
BRANCH   3  27
ATOM     27  N   UNL d   1     -28.033  22.757  24.024  0.00  0.00    -0.178 N 
ATOM     28  C   UNL d   1     -28.424  22.024  25.089  0.00  0.00     0.351 A 
ATOM     29  N   UNL d   1     -29.716  21.705  24.902  0.00  0.00    -0.284 N 
ATOM     30  O   UNL d   1     -27.734  21.710  26.042  0.00  0.00    -0.244 OA
ATOM     31  C   UNL d   1     -30.118  22.214  23.685  0.00  0.00     0.131 A 
ATOM     32  C   UNL d   1     -30.593  20.965  25.817  0.00  0.00     0.135 C 
ATOM     33  N   UNL d   1     -29.130  22.848  23.152  0.00  0.00    -0.149 NA
ATOM     34  C   UNL d   1     -31.503  22.022  23.112  0.00  0.00     0.081 C 
ATOM     35  C   UNL d   1     -32.438  21.611  24.257  0.00  0.00     0.009 C 
ATOM     36  C   UNL d   1     -31.801  20.449  25.027  0.00  0.00     0.021 C 
ENDBRANCH   3  27
TORSDOF 6
ENDMDL
