MODEL 1
REMARK VINA RESULT:      -9.6      0.000      0.000
REMARK  6 active torsions:
REMARK  status: ('A' for Active; 'I' for Inactive)
REMARK    1  A    between atoms: C_2  and  O_3 
REMARK    2  A    between atoms: C_2  and  C_32 
REMARK    3  A    between atoms: O_3  and  C_4 
REMARK    4  A    between atoms: C_6  and  N_7 
REMARK    5  A    between atoms: C_20  and  C_21 
REMARK       I    between atoms: C_21  and  N_23 
REMARK    6  A    between atoms: N_23  and  C_24 
ROOT
ATOM      1  C   UNL d   1     -26.182  23.127  23.311  0.00  0.00     0.087 A 
ATOM      2  C   UNL d   1     -27.559  22.996  23.354  0.00  0.00     0.073 A 
ATOM      3  C   UNL d   1     -28.214  22.225  22.403  0.00  0.00     0.105 A 
ATOM      4  C   UNL d   1     -27.488  21.576  21.404  0.00  0.00     0.146 A 
ATOM      5  F   UNL d   1     -28.132  20.823  20.485  0.00  0.00    -0.204 F 
ATOM      6  C   UNL d   1     -26.119  21.704  21.349  0.00  0.00     0.064 A 
ATOM      7  C   UNL d   1     -25.451  22.478  22.304  0.00  0.00     0.068 A 
ENDROOT
BRANCH   7   8
ATOM      8  C   UNL d   1     -23.986  22.613  22.253  0.00  0.00     0.259 C 
ATOM      9  O   UNL d   1     -23.279  21.629  22.370  0.00  0.00    -0.267 OA
ATOM     10  N   UNL d   1     -23.426  23.827  22.074  0.00  0.00    -0.318 N 
ATOM     11  H   UNL d   1     -23.984  24.620  22.061  0.00  0.00     0.169 HD
BRANCH  10  12
ATOM     12  C   UNL d   1     -22.040  23.942  21.911  0.00  0.00     0.113 A 
ATOM     13  C   UNL d   1     -21.196  23.811  23.008  0.00  0.00     0.146 A 
ATOM     14  C   UNL d   1     -19.827  23.926  22.844  0.00  0.00     0.045 A 
ATOM     15  F   UNL d   1     -21.712  23.571  24.233  0.00  0.00    -0.204 F 
ATOM     16  C   UNL d   1     -19.299  24.172  21.590  0.00  0.00     0.006 A 
ATOM     17  C   UNL d   1     -20.134  24.303  20.497  0.00  0.00     0.045 A 
ATOM     18  C   UNL d   1     -21.504  24.183  20.652  0.00  0.00     0.146 A 
ATOM     19  F   UNL d   1     -22.319  24.307  19.582  0.00  0.00    -0.204 F 
ENDBRANCH  10  12
ENDBRANCH   7   8
BRANCH   1  20
ATOM     20  O   UNL d   1     -25.540  23.880  24.240  0.00  0.00    -0.341 OA
BRANCH  20  21
ATOM     21  C   UNL d   1     -25.711  25.297  24.156  0.00  0.00     0.158 C 
ATOM     22  C   UNL d   1     -26.541  25.781  25.346  0.00  0.00     0.045 C 
BRANCH  21  23
ATOM     23  C   UNL d   1     -24.361  25.966  24.179  0.00  0.00    -0.029 A 
ATOM     24  C   UNL d   1     -23.594  25.938  25.329  0.00  0.00     0.010 A 
ATOM     25  C   UNL d   1     -22.357  26.552  25.350  0.00  0.00     0.001 A 
ATOM     26  C   UNL d   1     -21.883  27.193  24.221  0.00  0.00     0.000 A 
ATOM     27  C   UNL d   1     -22.650  27.221  23.070  0.00  0.00     0.001 A 
ATOM     28  C   UNL d   1     -23.886  26.603  23.048  0.00  0.00     0.010 A 
ENDBRANCH  21  23
ENDBRANCH  20  21
ENDBRANCH   1  20
BRANCH   3  29
ATOM     29  N   UNL d   1     -29.603  22.095  22.450  0.00  0.00    -0.177 N 
ATOM     30  C   UNL d   1     -30.340  21.799  23.539  0.00  0.00     0.355 A 
ATOM     31  N   UNL d   1     -31.635  21.765  23.168  0.00  0.00    -0.256 N 
ATOM     32  O   UNL d   1     -29.910  21.597  24.662  0.00  0.00    -0.244 OA
ATOM     33  C   UNL d   1     -31.705  22.047  21.817  0.00  0.00     0.158 A 
ATOM     34  C   UNL d   1     -32.785  21.513  23.877  0.00  0.00     0.103 A 
ATOM     35  N   UNL d   1     -30.486  22.248  21.371  0.00  0.00    -0.144 NA
ATOM     36  C   UNL d   1     -32.966  22.074  21.172  0.00  0.00     0.053 A 
ATOM     37  C   UNL d   1     -34.087  21.828  21.894  0.00  0.00     0.005 A 
ATOM     38  C   UNL d   1     -33.985  21.538  23.270  0.00  0.00     0.018 A 
ENDBRANCH   3  29
TORSDOF 6
ENDMDL
