MODEL 1
REMARK VINA RESULT:     -11.5      0.000      0.000
REMARK  8 active torsions:
REMARK  status: ('A' for Active; 'I' for Inactive)
REMARK    1  A    between atoms: C_2  and  O_3 
REMARK    2  A    between atoms: O_3  and  C_4 
REMARK    3  A    between atoms: C_8  and  C_9 
REMARK    4  A    between atoms: C_13  and  N_14 
REMARK    5  A    between atoms: N_14  and  C_15 
REMARK    6  A    between atoms: C_18  and  C_19 
REMARK    7  A    between atoms: C_23  and  C_24 
REMARK    8  A    between atoms: C_24  and  O_26 
ROOT
ATOM      1  C   UNL d   1     -24.566  23.408  22.537  0.00  0.00     0.016 A 
ATOM      2  C   UNL d   1     -25.117  24.216  23.529  0.00  0.00     0.060 A 
ATOM      3  C   UNL d   1     -26.317  23.867  24.115  0.00  0.00     0.144 A 
ATOM      4  F   UNL d   1     -26.851  24.651  25.077  0.00  0.00    -0.204 F 
ATOM      5  C   UNL d   1     -26.978  22.709  23.714  0.00  0.00     0.075 A 
ATOM      6  C   UNL d   1     -26.431  21.902  22.726  0.00  0.00     0.075 A 
ATOM      7  C   UNL d   1     -25.233  22.249  22.132  0.00  0.00     0.129 A 
ATOM      8  F   UNL d   1     -24.704  21.468  21.166  0.00  0.00    -0.205 F 
ENDROOT
BRANCH   5   9
ATOM      9  N   UNL d   1     -28.194  22.358  24.308  0.00  0.00    -0.338 N 
ATOM     10  H   UNL d   1     -28.235  22.185  25.262  0.00  0.00     0.167 HD
BRANCH   9  11
ATOM     11  C   UNL d   1     -29.336  22.257  23.536  0.00  0.00     0.144 A 
ATOM     12  C   UNL d   1     -30.540  21.825  24.122  0.00  0.00     0.084 A 
ATOM     13  C   UNL d   1     -31.684  21.731  23.320  0.00  0.00     0.031 A 
ATOM     14  C   UNL d   1     -31.578  22.068  21.983  0.00  0.00    -0.035 A 
ATOM     15  C   UNL d   1     -30.358  22.484  21.479  0.00  0.00     0.126 A 
ATOM     16  N   UNL d   1     -29.293  22.571  22.251  0.00  0.00    -0.242 NA
BRANCH  12  17
ATOM     17  C   UNL d   1     -30.597  21.479  25.552  0.00  0.00     0.180 C 
ATOM     18  O   UNL d   1     -31.322  22.105  26.301  0.00  0.00    -0.646 OA
BRANCH  17  19
ATOM     19  O   UNL d   1     -29.845  20.470  26.033  0.00  0.00    -0.773 OA
ATOM     20  H   UNL d   1     -29.752  20.409  26.993  0.00  0.00     0.167 HD
ENDBRANCH  17  19
ENDBRANCH  12  17
BRANCH  14  21
ATOM     21  C   UNL d   1     -32.782  21.981  21.081  0.00  0.00     0.020 A 
ATOM     22  C   UNL d   1     -33.669  20.739  21.205  0.00  0.00     0.010 A 
ATOM     23  C   UNL d   1     -34.163  22.088  21.733  0.00  0.00     0.010 A 
ENDBRANCH  14  21
ENDBRANCH   9  11
ENDBRANCH   5   9
BRANCH   1  24
ATOM     24  C   UNL d   1     -23.276  23.780  21.906  0.00  0.00    -0.020 A 
ATOM     25  C   UNL d   1     -23.240  24.176  20.569  0.00  0.00     0.012 A 
ATOM     26  C   UNL d   1     -22.040  24.528  19.986  0.00  0.00     0.004 A 
ATOM     27  C   UNL d   1     -20.871  24.484  20.722  0.00  0.00     0.037 A 
ATOM     28  C   UNL d   1     -20.897  24.086  22.051  0.00  0.00     0.069 A 
ATOM     29  C   UNL d   1     -22.097  23.731  22.645  0.00  0.00     0.049 A 
BRANCH  28  30
ATOM     30  O   UNL d   1     -19.744  24.045  22.771  0.00  0.00    -0.351 OA
BRANCH  30  31
ATOM     31  C   UNL d   1     -19.754  24.684  24.048  0.00  0.00     0.171 C 
ATOM     32  C   UNL d   1     -19.812  26.201  23.861  0.00  0.00     0.034 C 
ENDBRANCH  30  31
ENDBRANCH  28  30
ENDBRANCH   1  24
TORSDOF 8
ENDMDL
