MODEL 1
REMARK VINA RESULT:     -11.2      0.000      0.000
REMARK  3 active torsions:
REMARK  status: ('A' for Active; 'I' for Inactive)
REMARK       I    between atoms: C_2  and  N_3 
REMARK    1  A    between atoms: C_2  and  C_20 
REMARK    2  A    between atoms: N_3  and  C_4 
REMARK    3  A    between atoms: N_12  and  C_13 
ROOT
ATOM      1  C   UNL d   1     -27.261  22.277  22.283  0.00  0.00     0.121 C 
ATOM      2  C   UNL d   1     -26.508  21.185  21.513  0.00  0.00     0.030 C 
ATOM      3  C   UNL d   1     -25.418  21.828  20.650  0.00  0.00     0.008 C 
ATOM      4  C   UNL d   1     -24.302  22.370  21.552  0.00  0.00     0.060 C 
ATOM      5  C   UNL d   1     -24.932  23.205  22.638  0.00  0.00     0.046 A 
ATOM      6  C   UNL d   1     -26.250  23.165  22.963  0.00  0.00     0.008 A 
ATOM      7  C   UNL d   1     -26.465  24.069  24.001  0.00  0.00     0.150 A 
ATOM      8  N   UNL d   1     -25.319  24.634  24.294  0.00  0.00    -0.179 NA
ATOM      9  N   UNL d   1     -24.336  24.102  23.446  0.00  0.00    -0.235 N 
ENDROOT
BRANCH   1  10
ATOM     10  N   UNL d   1     -28.131  21.660  23.290  0.00  0.00    -0.347 N 
ATOM     11  C   UNL d   1     -29.382  22.125  23.476  0.00  0.00     0.273 C 
ATOM     12  O   UNL d   1     -29.789  23.056  22.809  0.00  0.00    -0.266 OA
ATOM     13  H   UNL d   1     -27.805  20.917  23.821  0.00  0.00     0.163 HD
BRANCH  11  14
ATOM     14  C   UNL d   1     -30.261  21.501  24.493  0.00  0.00     0.160 A 
ATOM     15  C   UNL d   1     -31.600  21.092  24.325  0.00  0.00     0.010 A 
ATOM     16  C   UNL d   1     -31.956  20.590  25.532  0.00  0.00     0.087 A 
ATOM     17  C   UNL d   1     -32.495  21.157  23.124  0.00  0.00     0.044 C 
ATOM     18  O   UNL d   1     -30.891  20.707  26.323  0.00  0.00    -0.217 OA
ATOM     19  C   UNL d   1     -33.320  20.028  25.835  0.00  0.00     0.068 C 
ATOM     20  N   UNL d   1     -29.955  21.213  25.740  0.00  0.00    -0.122 NA
ATOM     21  C   UNL d   1     -34.289  20.500  24.743  0.00  0.00     0.007 C 
ATOM     22  C   UNL d   1     -33.689  20.221  23.363  0.00  0.00     0.005 C 
ENDBRANCH  11  14
ENDBRANCH   1  10
BRANCH   9  23
ATOM     23  C   UNL d   1     -22.975  24.442  23.441  0.00  0.00     0.097 A 
ATOM     24  C   UNL d   1     -22.578  25.718  23.057  0.00  0.00     0.145 A 
ATOM     25  C   UNL d   1     -21.236  26.051  23.058  0.00  0.00     0.045 A 
ATOM     26  F   UNL d   1     -23.503  26.632  22.689  0.00  0.00    -0.204 F 
ATOM     27  C   UNL d   1     -20.290  25.114  23.430  0.00  0.00     0.003 A 
ATOM     28  C   UNL d   1     -20.683  23.843  23.806  0.00  0.00     0.002 A 
ATOM     29  C   UNL d   1     -22.022  23.504  23.812  0.00  0.00     0.035 A 
ENDBRANCH   9  23
TORSDOF 3
ENDMDL
