MODEL 1
REMARK VINA RESULT:      -8.7      0.000      0.000
REMARK  3 active torsions:
REMARK  status: ('A' for Active; 'I' for Inactive)
REMARK    1  A    between atoms: CA_4  and  CB_5 
REMARK    2  A    between atoms: CB_5  and  CG_6 
REMARK    3  A    between atoms: CG_16  and  OD_17 
ROOT
ATOM      1  O   HYP d   2     -30.604  20.521  26.027  0.00  0.00    -0.271 OA
ATOM      2  C   HYP d   2     -30.260  21.290  25.154  0.00  0.00     0.241 C 
ATOM      3  N   HYP d   2     -30.758  22.187  22.972  0.00  0.00    -0.334 N 
ATOM      4  CD  HYP d   2     -31.851  22.026  22.012  0.00  0.00     0.158 C 
ATOM      5  CG  HYP d   2     -33.120  21.673  22.820  0.00  0.00     0.138 C 
ATOM      6  CB  HYP d   2     -32.544  21.131  24.157  0.00  0.00     0.068 C 
ATOM      7  CA  HYP d   2     -31.296  22.025  24.341  0.00  0.00     0.181 C 
ATOM      8  N   PHE d   1     -28.951  21.491  24.907  0.00  0.00    -0.346 N 
ATOM      9  CA  PHE d   1     -28.499  22.437  23.887  0.00  0.00     0.181 C 
ATOM     10  C   PHE d   1     -29.455  22.424  22.717  0.00  0.00     0.243 C 
ATOM     11  O   PHE d   1     -29.064  22.618  21.585  0.00  0.00    -0.271 OA
ATOM     12  H   PHE d   1     -28.292  20.996  25.419  0.00  0.00     0.163 HD
ENDROOT
BRANCH   9  13
ATOM     13  CB  PHE d   1     -27.102  22.037  23.407  0.00  0.00     0.073 C 
BRANCH  13  14
ATOM     14  CG  PHE d   1     -26.181  23.226  23.494  0.00  0.00    -0.056 A 
ATOM     15  CD1 PHE d   1     -26.573  24.355  24.189  0.00  0.00     0.007 A 
ATOM     16  CE1 PHE d   1     -25.727  25.446  24.267  0.00  0.00     0.001 A 
ATOM     17  CZ  PHE d   1     -24.491  25.409  23.650  0.00  0.00     0.000 A 
ATOM     18  CE2 PHE d   1     -24.099  24.280  22.955  0.00  0.00     0.001 A 
ATOM     19  CD2 PHE d   1     -24.942  23.186  22.881  0.00  0.00     0.007 A 
ENDBRANCH  13  14
ENDBRANCH   9  13
BRANCH   5  20
ATOM     20  OD  HYP d   2     -33.914  22.840  23.049  0.00  0.00    -0.394 OA
ATOM     21  HD  HYP d   2     -34.835  22.651  23.275  0.00  0.00     0.210 HD
ENDBRANCH   5  20
TORSDOF 3
ENDMDL
