MODEL 1
REMARK VINA RESULT:     -10.6      0.000      0.000
REMARK  7 active torsions:
REMARK  status: ('A' for Active; 'I' for Inactive)
REMARK    1  A    between atoms: C_2  and  C_3 
REMARK    2  A    between atoms: C_3  and  C_4 
REMARK    3  A    between atoms: C_4  and  O_6 
REMARK    4  A    between atoms: O_6  and  C_7 
REMARK    5  A    between atoms: C_9  and  N_10 
REMARK    6  A    between atoms: C_23  and  C_24 
REMARK       I    between atoms: C_24  and  N_26 
REMARK    7  A    between atoms: N_26  and  C_27 
ROOT
ATOM      1  C   UNL d   1     -26.184  23.234  23.334  0.00  0.00     0.087 A 
ATOM      2  C   UNL d   1     -27.559  23.085  23.358  0.00  0.00     0.073 A 
ATOM      3  C   UNL d   1     -28.183  22.248  22.443  0.00  0.00     0.105 A 
ATOM      4  C   UNL d   1     -27.428  21.554  21.498  0.00  0.00     0.146 A 
ATOM      5  F   UNL d   1     -28.041  20.741  20.610  0.00  0.00    -0.204 F 
ATOM      6  C   UNL d   1     -26.059  21.695  21.465  0.00  0.00     0.064 A 
ATOM      7  C   UNL d   1     -25.422  22.538  22.384  0.00  0.00     0.068 A 
ENDROOT
BRANCH   7   8
ATOM      8  C   UNL d   1     -23.958  22.692  22.354  0.00  0.00     0.259 C 
ATOM      9  O   UNL d   1     -23.241  21.710  22.416  0.00  0.00    -0.267 OA
ATOM     10  N   UNL d   1     -23.411  23.919  22.255  0.00  0.00    -0.320 N 
ATOM     11  H   UNL d   1     -23.977  24.706  22.290  0.00  0.00     0.169 HD
BRANCH  10  12
ATOM     12  C   UNL d   1     -22.027  24.059  22.104  0.00  0.00     0.080 A 
ATOM     13  C   UNL d   1     -21.192  23.974  23.212  0.00  0.00     0.143 A 
ATOM     14  C   UNL d   1     -19.825  24.112  23.058  0.00  0.00     0.045 A 
ATOM     15  F   UNL d   1     -21.716  23.758  24.439  0.00  0.00    -0.204 F 
ATOM     16  C   UNL d   1     -19.288  24.335  21.803  0.00  0.00     0.004 A 
ATOM     17  C   UNL d   1     -20.116  24.418  20.699  0.00  0.00     0.009 A 
ATOM     18  C   UNL d   1     -21.483  24.276  20.844  0.00  0.00    -0.032 A 
ATOM     19  C   UNL d   1     -22.383  24.362  19.639  0.00  0.00     0.050 C 
ENDBRANCH  10  12
ENDBRANCH   7   8
BRANCH   1  20
ATOM     20  O   UNL d   1     -25.572  24.052  24.229  0.00  0.00    -0.345 OA
BRANCH  20  21
ATOM     21  C   UNL d   1     -25.882  25.445  24.152  0.00  0.00     0.124 C 
ATOM     22  C   UNL d   1     -26.296  25.953  25.535  0.00  0.00     0.040 C 
BRANCH  21  23
ATOM     23  C   UNL d   1     -24.652  26.216  23.673  0.00  0.00     0.032 C 
BRANCH  23  24
ATOM     24  C   UNL d   1     -23.635  26.314  24.812  0.00  0.00    -0.002 C 
ATOM     25  C   UNL d   1     -22.407  27.092  24.336  0.00  0.00     0.005 C 
ENDBRANCH  23  24
ENDBRANCH  21  23
ENDBRANCH  20  21
ENDBRANCH   1  20
BRANCH   3  26
ATOM     26  N   UNL d   1     -29.571  22.103  22.466  0.00  0.00    -0.177 N 
ATOM     27  C   UNL d   1     -30.324  21.819  23.548  0.00  0.00     0.355 A 
ATOM     28  N   UNL d   1     -31.612  21.765  23.153  0.00  0.00    -0.256 N 
ATOM     29  O   UNL d   1     -29.913  21.643  24.681  0.00  0.00    -0.244 OA
ATOM     30  C   UNL d   1     -31.660  22.021  21.796  0.00  0.00     0.158 A 
ATOM     31  C   UNL d   1     -32.773  21.515  23.846  0.00  0.00     0.103 A 
ATOM     32  N   UNL d   1     -30.435  22.232  21.370  0.00  0.00    -0.144 NA
ATOM     33  C   UNL d   1     -32.910  22.024  21.128  0.00  0.00     0.053 A 
ATOM     34  C   UNL d   1     -34.040  21.775  21.833  0.00  0.00     0.005 A 
ATOM     35  C   UNL d   1     -33.961  21.517  23.217  0.00  0.00     0.018 A 
ENDBRANCH   3  26
TORSDOF 7
ENDMDL
