MODEL 1
REMARK VINA RESULT:     -12.9      0.000      0.000
REMARK  7 active torsions:
REMARK  status: ('A' for Active; 'I' for Inactive)
REMARK    1  A    between atoms: C_2  and  O_3 
REMARK    2  A    between atoms: C_2  and  C_4 
REMARK    3  A    between atoms: C_11  and  C_12 
REMARK    4  A    between atoms: C_17  and  C_18 
REMARK    5  A    between atoms: C_21  and  O_22 
REMARK    6  A    between atoms: O_22  and  C_23 
REMARK    7  A    between atoms: C_23  and  C_24 
ROOT
ATOM      1  C   UNL d   1     -27.790  22.436  22.683  0.00  0.00     0.093 A 
ATOM      2  C   UNL d   1     -27.211  23.321  23.597  0.00  0.00     0.173 A 
ATOM      3  F   UNL d   1     -27.978  23.933  24.525  0.00  0.00    -0.202 F 
ATOM      4  C   UNL d   1     -25.853  23.570  23.550  0.00  0.00     0.170 A 
ATOM      5  F   UNL d   1     -25.293  24.426  24.433  0.00  0.00    -0.202 F 
ATOM      6  C   UNL d   1     -25.059  22.939  22.590  0.00  0.00     0.058 A 
ATOM      7  C   UNL d   1     -25.637  22.060  21.673  0.00  0.00     0.170 A 
ATOM      8  F   UNL d   1     -24.869  21.455  20.742  0.00  0.00    -0.202 F 
ATOM      9  C   UNL d   1     -26.993  21.804  21.722  0.00  0.00     0.173 A 
ATOM     10  F   UNL d   1     -27.552  20.948  20.837  0.00  0.00    -0.202 F 
ENDROOT
BRANCH   1  11
ATOM     11  C   UNL d   1     -29.240  22.168  22.731  0.00  0.00     0.145 A 
ATOM     12  N   UNL d   1     -30.109  22.338  21.688  0.00  0.00    -0.338 N 
ATOM     13  C   UNL d   1     -31.364  21.979  22.143  0.00  0.00     0.064 A 
ATOM     14  H   UNL d   1     -29.885  22.651  20.797  0.00  0.00     0.167 HD
ATOM     15  C   UNL d   1     -32.621  21.938  21.560  0.00  0.00     0.032 A 
ATOM     16  C   UNL d   1     -31.198  21.595  23.485  0.00  0.00     0.102 A 
ATOM     17  C   UNL d   1     -33.716  21.522  22.295  0.00  0.00     0.003 A 
ATOM     18  C   UNL d   1     -33.575  21.139  23.615  0.00  0.00     0.021 A 
ATOM     19  C   UNL d   1     -32.323  21.169  24.227  0.00  0.00     0.068 A 
ATOM     20  N   UNL d   1     -29.894  21.725  23.782  0.00  0.00    -0.227 NA
BRANCH  19  21
ATOM     21  C   UNL d   1     -32.174  20.762  25.633  0.00  0.00     0.178 C 
ATOM     22  O   UNL d   1     -32.771  19.789  26.050  0.00  0.00    -0.646 OA
BRANCH  21  23
ATOM     23  O   UNL d   1     -31.376  21.467  26.459  0.00  0.00    -0.773 OA
ATOM     24  H   UNL d   1     -30.685  20.978  26.927  0.00  0.00     0.167 HD
ENDBRANCH  21  23
ENDBRANCH  19  21
ENDBRANCH   1  11
BRANCH   6  25
ATOM     25  C   UNL d   1     -23.602  23.208  22.541  0.00  0.00    -0.019 A 
ATOM     26  C   UNL d   1     -22.777  22.780  23.581  0.00  0.00     0.015 A 
ATOM     27  C   UNL d   1     -21.421  23.027  23.529  0.00  0.00     0.037 A 
ATOM     28  C   UNL d   1     -20.879  23.711  22.449  0.00  0.00     0.069 A 
ATOM     29  C   UNL d   1     -21.699  24.140  21.413  0.00  0.00     0.037 A 
ATOM     30  C   UNL d   1     -23.054  23.890  21.456  0.00  0.00     0.015 A 
BRANCH  28  31
ATOM     31  O   UNL d   1     -19.544  23.958  22.405  0.00  0.00    -0.347 OA
BRANCH  31  32
ATOM     32  C   UNL d   1     -19.127  25.311  22.594  0.00  0.00     0.214 C 
BRANCH  32  33
ATOM     33  C   UNL d   1     -19.718  25.845  23.874  0.00  0.00    -0.034 A 
ATOM     34  C   UNL d   1     -20.918  26.528  23.849  0.00  0.00     0.009 A 
ATOM     35  C   UNL d   1     -21.460  27.017  25.022  0.00  0.00     0.001 A 
ATOM     36  C   UNL d   1     -20.801  26.822  26.222  0.00  0.00     0.000 A 
ATOM     37  C   UNL d   1     -19.600  26.139  26.247  0.00  0.00     0.001 A 
ATOM     38  C   UNL d   1     -19.059  25.650  25.073  0.00  0.00     0.009 A 
ENDBRANCH  32  33
ENDBRANCH  31  32
ENDBRANCH  28  31
ENDBRANCH   6  25
TORSDOF 7
ENDMDL
