MODEL 1
REMARK VINA RESULT:      -9.9      0.000      0.000
REMARK  4 active torsions:
REMARK  status: ('A' for Active; 'I' for Inactive)
REMARK    1  A    between atoms: C_3  and  C_4 
REMARK    2  A    between atoms: C_7  and  C_8 
REMARK    3  A    between atoms: C_25  and  C_26 
REMARK       I    between atoms: C_26  and  N_28 
REMARK    4  A    between atoms: N_28  and  S_29 
ROOT
ATOM      1  C   UNL d   1     -19.457  24.998  22.419  0.00  0.00     0.052 C 
ATOM      2  C   UNL d   1     -19.506  25.575  23.811  0.00  0.00    -0.016 A 
ATOM      3  C   UNL d   1     -20.670  25.456  24.585  0.00  0.00     0.074 A 
ATOM      4  N   UNL d   1     -20.754  25.941  25.807  0.00  0.00    -0.247 NA
ATOM      5  C   UNL d   1     -19.741  26.583  26.391  0.00  0.00     0.069 A 
ATOM      6  C   UNL d   1     -19.861  27.089  27.698  0.00  0.00     0.035 A 
ATOM      7  C   UNL d   1     -18.811  27.739  28.270  0.00  0.00     0.044 A 
ATOM      8  C   UNL d   1     -17.611  27.914  27.579  0.00  0.00     0.117 A 
ATOM      9  F   UNL d   1     -16.587  28.563  28.174  0.00  0.00    -0.206 F 
ATOM     10  C   UNL d   1     -17.460  27.436  26.309  0.00  0.00     0.057 A 
ATOM     11  C   UNL d   1     -18.519  26.763  25.693  0.00  0.00     0.012 A 
ATOM     12  C   UNL d   1     -18.403  26.233  24.335  0.00  0.00     0.053 A 
ENDROOT
BRANCH   3  13
ATOM     13  C   UNL d   1     -21.844  24.756  24.011  0.00  0.00    -0.007 A 
ATOM     14  C   UNL d   1     -22.958  25.486  23.598  0.00  0.00     0.014 A 
ATOM     15  C   UNL d   1     -24.046  24.836  23.059  0.00  0.00     0.013 A 
ATOM     16  C   UNL d   1     -24.038  23.446  22.938  0.00  0.00    -0.023 A 
ATOM     17  C   UNL d   1     -22.924  22.717  23.352  0.00  0.00     0.013 A 
ATOM     18  C   UNL d   1     -21.834  23.367  23.885  0.00  0.00     0.014 A 
BRANCH  16  19
ATOM     19  C   UNL d   1     -25.212  22.746  22.364  0.00  0.00     0.013 A 
ATOM     20  C   UNL d   1     -26.400  22.658  23.091  0.00  0.00     0.127 A 
ATOM     21  C   UNL d   1     -27.489  21.997  22.551  0.00  0.00     0.043 A 
ATOM     22  F   UNL d   1     -26.485  23.211  24.321  0.00  0.00    -0.205 F 
ATOM     23  C   UNL d   1     -27.405  21.436  21.290  0.00  0.00     0.003 A 
ATOM     24  C   UNL d   1     -26.229  21.521  20.567  0.00  0.00     0.001 A 
ATOM     25  C   UNL d   1     -25.134  22.173  21.096  0.00  0.00     0.015 A 
ENDBRANCH  16  19
ENDBRANCH   3  13
BRANCH  12  26
ATOM     26  C   UNL d   1     -17.156  26.387  23.554  0.00  0.00     0.266 C 
ATOM     27  O   UNL d   1     -16.988  27.375  22.866  0.00  0.00    -0.267 OA
ATOM     28  N   UNL d   1     -16.207  25.431  23.605  0.00  0.00    -0.250 N 
ATOM     29  H   UNL d   1     -16.342  24.643  24.153  0.00  0.00     0.181 HD
BRANCH  28  30
ATOM     30  S   UNL d   1     -14.812  25.603  22.731  0.00  0.00     0.229 S 
ATOM     31  C   UNL d   1     -13.777  26.700  23.740  0.00  0.00     0.186 C 
ATOM     32  O   UNL d   1     -14.259  24.294  22.691  0.00  0.00    -0.206 OA
ATOM     33  O   UNL d   1     -15.222  26.261  21.540  0.00  0.00    -0.206 OA
ENDBRANCH  28  30
ENDBRANCH  12  26
TORSDOF 4
ENDMDL
