MODEL 1
REMARK VINA RESULT:      -9.8      0.000      0.000
REMARK  7 active torsions:
REMARK  status: ('A' for Active; 'I' for Inactive)
REMARK    1  A    between atoms: C_2  and  OXT_3 
REMARK    2  A    between atoms: C_2  and  CA_4 
REMARK    3  A    between atoms: C_13  and  C_14 
REMARK    4  A    between atoms: C_14  and  C_15 
REMARK    5  A    between atoms: C_15  and  C_16 
REMARK    6  A    between atoms: C_18  and  C_19 
REMARK    7  A    between atoms: C_24  and  C_25 
ROOT
ATOM      1  C   UNL d   1     -28.168  21.761  24.141  0.00  0.00     0.051 C 
ENDROOT
BRANCH   1   2
ATOM      2  C   UNL d   1     -29.630  21.878  23.797  0.00  0.00     0.044 A 
ATOM      3  CA  UNL d   1     -30.587  21.581  24.715  0.00  0.00     0.122 A 
ATOM      4  N   UNL d   1     -31.916  21.699  24.369  0.00  0.00    -0.302 N 
ATOM      5  H   UNL d   1     -32.599  21.487  25.024  0.00  0.00     0.171 HD
ATOM      6  C   UNL d   1     -32.282  22.103  23.141  0.00  0.00     0.327 A 
ATOM      7  O   UNL d   1     -33.466  22.194  22.877  0.00  0.00    -0.247 OA
ATOM      8  N   UNL d   1     -31.375  22.410  22.198  0.00  0.00    -0.275 N 
ATOM      9  H   UNL d   1     -31.672  22.698  21.319  0.00  0.00     0.173 HD
ATOM     10  C   UNL d   1     -30.055  22.324  22.465  0.00  0.00     0.258 A 
ATOM     11  O   UNL d   1     -29.233  22.605  21.614  0.00  0.00    -0.267 OA
BRANCH   3  12
ATOM     12  C   UNL d   1     -30.205  21.133  26.075  0.00  0.00     0.194 C 
ATOM     13  O   UNL d   1     -29.933  21.952  26.930  0.00  0.00    -0.645 OA
BRANCH  12  14
ATOM     14  OXT UNL d   1     -30.162  19.818  26.364  0.00  0.00    -0.772 OA
ATOM     15  HXT UNL d   1     -30.664  19.225  25.788  0.00  0.00     0.167 HD
ENDBRANCH  12  14
ENDBRANCH   3  12
ENDBRANCH   1   2
BRANCH   1  16
ATOM     16  C   UNL d   1     -27.612  23.146  24.480  0.00  0.00     0.043 C 
BRANCH  16  17
ATOM     17  C   UNL d   1     -26.370  23.403  23.664  0.00  0.00    -0.056 A 
ATOM     18  C   UNL d   1     -26.059  22.574  22.601  0.00  0.00     0.023 A 
ATOM     19  C   UNL d   1     -24.920  22.810  21.853  0.00  0.00     0.049 A 
ATOM     20  C   UNL d   1     -24.095  23.874  22.166  0.00  0.00     0.032 A 
ATOM     21  C   UNL d   1     -24.409  24.704  23.226  0.00  0.00     0.049 A 
ATOM     22  C   UNL d   1     -25.545  24.465  23.978  0.00  0.00     0.023 A 
BRANCH  19  23
ATOM     23  C   UNL d   1     -24.580  21.907  20.696  0.00  0.00     0.417 C 
ATOM     24  F   UNL d   1     -25.647  21.887  19.791  0.00  0.00    -0.166 F 
ATOM     25  F   UNL d   1     -23.432  22.383  20.053  0.00  0.00    -0.166 F 
ATOM     26  F   UNL d   1     -24.346  20.611  21.169  0.00  0.00    -0.166 F 
ENDBRANCH  19  23
BRANCH  21  27
ATOM     27  C   UNL d   1     -23.512  25.866  23.564  0.00  0.00     0.417 C 
ATOM     28  F   UNL d   1     -23.507  26.775  22.500  0.00  0.00    -0.166 F 
ATOM     29  F   UNL d   1     -23.986  26.500  24.717  0.00  0.00    -0.166 F 
ATOM     30  F   UNL d   1     -22.212  25.403  23.787  0.00  0.00    -0.166 F 
ENDBRANCH  21  27
ENDBRANCH  16  17
ENDBRANCH   1  16
TORSDOF 7
ENDMDL
