MODEL 1
REMARK VINA RESULT:      -9.8      0.000      0.000
REMARK  9 active torsions:
REMARK  status: ('A' for Active; 'I' for Inactive)
REMARK    1  A    between atoms: C_2  and  N_3 
REMARK    2  A    between atoms: C_4  and  C_5 
REMARK    3  A    between atoms: C_5  and  O_6 
REMARK    4  A    between atoms: N_8  and  C_9 
REMARK    5  A    between atoms: C_11  and  O_12 
REMARK    6  A    between atoms: O_12  and  C_13 
REMARK    7  A    between atoms: C_13  and  C_15 
REMARK    8  A    between atoms: C_19  and  C_20 
REMARK       I    between atoms: C_20  and  N_22 
REMARK    9  A    between atoms: N_22  and  C_23 
ROOT
ATOM      1  C   UNL d   1     -26.594  23.515  23.753  0.00  0.00     0.104 A 
ATOM      2  C   UNL d   1     -25.670  23.009  22.848  0.00  0.00     0.073 A 
ATOM      3  C   UNL d   1     -24.418  23.587  22.739  0.00  0.00     0.087 A 
ATOM      4  C   UNL d   1     -24.081  24.681  23.553  0.00  0.00     0.068 A 
ATOM      5  C   UNL d   1     -25.016  25.181  24.465  0.00  0.00     0.064 A 
ATOM      6  C   UNL d   1     -26.261  24.602  24.562  0.00  0.00     0.146 A 
ATOM      7  F   UNL d   1     -27.163  25.085  25.444  0.00  0.00    -0.204 F 
ENDROOT
BRANCH   4   8
ATOM      8  C   UNL d   1     -22.749  25.298  23.445  0.00  0.00     0.259 C 
ATOM      9  O   UNL d   1     -22.609  26.343  22.840  0.00  0.00    -0.267 OA
ATOM     10  N   UNL d   1     -21.683  24.703  24.018  0.00  0.00    -0.320 N 
ATOM     11  H   UNL d   1     -21.773  23.821  24.411  0.00  0.00     0.169 HD
BRANCH  10  12
ATOM     12  C   UNL d   1     -20.447  25.358  24.045  0.00  0.00     0.079 A 
ATOM     13  C   UNL d   1     -20.187  26.316  25.018  0.00  0.00     0.062 A 
ATOM     14  C   UNL d   1     -18.964  26.960  25.042  0.00  0.00     0.026 A 
ATOM     15 CL   UNL d   1     -21.396  26.701  26.203  0.00  0.00    -0.082 Cl
ATOM     16  C   UNL d   1     -18.000  26.653  24.099  0.00  0.00     0.003 A 
ATOM     17  C   UNL d   1     -18.255  25.701  23.129  0.00  0.00     0.026 A 
ATOM     18  C   UNL d   1     -19.473  25.049  23.103  0.00  0.00     0.062 A 
ATOM     19 CL   UNL d   1     -19.790  23.848  21.890  0.00  0.00    -0.082 Cl
ENDBRANCH  10  12
ENDBRANCH   4   8
BRANCH   3  20
ATOM     20  O   UNL d   1     -23.516  23.097  21.852  0.00  0.00    -0.336 OA
BRANCH  20  21
ATOM     21  C   UNL d   1     -23.792  23.307  20.465  0.00  0.00     0.232 C 
ATOM     22  C   UNL d   1     -22.495  23.670  19.737  0.00  0.00     0.049 C 
BRANCH  21  23
ATOM     23  C   UNL d   1     -24.375  22.028  19.862  0.00  0.00     0.413 C 
ATOM     24  F   UNL d   1     -24.149  20.956  20.732  0.00  0.00    -0.168 F 
ATOM     25  F   UNL d   1     -25.753  22.189  19.670  0.00  0.00    -0.168 F 
ATOM     26  F   UNL d   1     -23.760  21.769  18.633  0.00  0.00    -0.168 F 
ENDBRANCH  21  23
ENDBRANCH  20  21
ENDBRANCH   3  20
BRANCH   1  27
ATOM     27  N   UNL d   1     -27.859  22.932  23.857  0.00  0.00    -0.178 N 
ATOM     28  N   UNL d   1     -28.914  23.068  22.946  0.00  0.00    -0.147 NA
ATOM     29  C   UNL d   1     -29.919  22.382  23.387  0.00  0.00     0.154 A 
ATOM     30  N   UNL d   1     -29.563  21.789  24.574  0.00  0.00    -0.283 N 
ATOM     31  C   UNL d   1     -28.291  22.133  24.856  0.00  0.00     0.351 A 
ATOM     32  O   UNL d   1     -27.650  21.789  25.832  0.00  0.00    -0.244 OA
BRANCH  29  33
ATOM     33  C   UNL d   1     -31.260  22.254  22.711  0.00  0.00     0.244 C 
BRANCH  33  34
ATOM     34  O   UNL d   1     -31.087  22.327  21.295  0.00  0.00    -0.393 OA
ATOM     35  H   UNL d   1     -31.115  23.227  20.940  0.00  0.00     0.209 HD
ENDBRANCH  33  34
ENDBRANCH  29  33
BRANCH  30  36
ATOM     36  C   UNL d   1     -30.419  20.927  25.393  0.00  0.00     0.131 C 
ATOM     37  C   UNL d   1     -31.659  21.709  25.831  0.00  0.00     0.027 C 
ENDBRANCH  30  36
ENDBRANCH   1  27
TORSDOF 9
ENDMDL
