MODEL 1
REMARK VINA RESULT:     -10.8      0.000      0.000
REMARK  7 active torsions:
REMARK  status: ('A' for Active; 'I' for Inactive)
REMARK    1  A    between atoms: C_2  and  O_3 
REMARK    2  A    between atoms: C_2  and  C_33 
REMARK    3  A    between atoms: O_3  and  C_4 
REMARK    4  A    between atoms: C_6  and  N_7 
REMARK    5  A    between atoms: C_20  and  C_21 
REMARK       I    between atoms: C_21  and  N_23 
REMARK    6  A    between atoms: N_23  and  C_24 
REMARK    7  A    between atoms: C_28  and  O_29 
ROOT
ATOM      1  C   UNL d   1     -24.694  23.366  22.643  0.00  0.00     0.087 A 
ATOM      2  C   UNL d   1     -25.953  22.821  22.822  0.00  0.00     0.073 A 
ATOM      3  C   UNL d   1     -26.803  23.337  23.790  0.00  0.00     0.104 A 
ATOM      4  C   UNL d   1     -26.396  24.408  24.583  0.00  0.00     0.146 A 
ATOM      5  F   UNL d   1     -27.231  24.909  25.521  0.00  0.00    -0.204 F 
ATOM      6  C   UNL d   1     -25.143  24.955  24.418  0.00  0.00     0.064 A 
ATOM      7  C   UNL d   1     -24.280  24.441  23.444  0.00  0.00     0.068 A 
ENDROOT
BRANCH   7   8
ATOM      8  C   UNL d   1     -22.941  25.026  23.260  0.00  0.00     0.259 C 
ATOM      9  O   UNL d   1     -22.810  26.060  22.633  0.00  0.00    -0.267 OA
ATOM     10  N   UNL d   1     -21.860  24.416  23.786  0.00  0.00    -0.318 N 
ATOM     11  H   UNL d   1     -21.953  23.553  24.217  0.00  0.00     0.169 HD
BRANCH  10  12
ATOM     12  C   UNL d   1     -20.601  25.031  23.711  0.00  0.00     0.113 A 
ATOM     13  C   UNL d   1     -20.238  25.990  24.648  0.00  0.00     0.148 A 
ATOM     14  C   UNL d   1     -18.996  26.594  24.572  0.00  0.00     0.081 A 
ATOM     15  F   UNL d   1     -21.098  26.333  25.632  0.00  0.00    -0.203 F 
ATOM     16  C   UNL d   1     -18.114  26.243  23.561  0.00  0.00     0.071 A 
ATOM     17  C   UNL d   1     -18.475  25.285  22.625  0.00  0.00     0.081 A 
ATOM     18  C   UNL d   1     -19.714  24.675  22.702  0.00  0.00     0.148 A 
ATOM     19  F   UNL d   1     -20.064  23.739  21.793  0.00  0.00    -0.203 F 
BRANCH  16  20
ATOM     20  O   UNL d   1     -16.893  26.837  23.488  0.00  0.00    -0.361 OA
ATOM     21  H   UNL d   1     -16.599  27.023  22.586  0.00  0.00     0.217 HD
ENDBRANCH  16  20
ENDBRANCH  10  12
ENDBRANCH   7   8
BRANCH   1  22
ATOM     22  O   UNL d   1     -23.863  22.863  21.697  0.00  0.00    -0.336 OA
BRANCH  22  23
ATOM     23  C   UNL d   1     -23.978  23.400  20.378  0.00  0.00     0.232 C 
ATOM     24  C   UNL d   1     -22.600  23.847  19.886  0.00  0.00     0.049 C 
BRANCH  23  25
ATOM     25  C   UNL d   1     -24.534  22.330  19.437  0.00  0.00     0.413 C 
ATOM     26  F   UNL d   1     -24.600  22.840  18.136  0.00  0.00    -0.168 F 
ATOM     27  F   UNL d   1     -23.695  21.210  19.458  0.00  0.00    -0.168 F 
ATOM     28  F   UNL d   1     -25.816  21.959  19.858  0.00  0.00    -0.168 F 
ENDBRANCH  23  25
ENDBRANCH  22  23
ENDBRANCH   1  22
BRANCH   3  29
ATOM     29  N   UNL d   1     -28.074  22.784  23.967  0.00  0.00    -0.178 N 
ATOM     30  C   UNL d   1     -28.475  22.015  25.003  0.00  0.00     0.351 A 
ATOM     31  N   UNL d   1     -29.770  21.718  24.804  0.00  0.00    -0.284 N 
ATOM     32  O   UNL d   1     -27.790  21.657  25.944  0.00  0.00    -0.244 OA
ATOM     33  C   UNL d   1     -30.164  22.278  23.606  0.00  0.00     0.131 A 
ATOM     34  C   UNL d   1     -30.657  20.954  25.688  0.00  0.00     0.135 C 
ATOM     35  N   UNL d   1     -29.168  22.921  23.100  0.00  0.00    -0.149 NA
ATOM     36  C   UNL d   1     -31.551  22.125  23.024  0.00  0.00     0.081 C 
ATOM     37  C   UNL d   1     -32.492  21.681  24.152  0.00  0.00     0.009 C 
ATOM     38  C   UNL d   1     -31.870  20.483  24.878  0.00  0.00     0.021 C 
ENDBRANCH   3  29
TORSDOF 7
ENDMDL
