MODEL 1
REMARK VINA RESULT:     -12.0      0.000      0.000
REMARK  5 active torsions:
REMARK  status: ('A' for Active; 'I' for Inactive)
REMARK       I    between atoms: C_2  and  N_4 
REMARK    1  A    between atoms: N_4  and  C_5 
REMARK    2  A    between atoms: C_8  and  C_9 
REMARK    3  A    between atoms: C_12  and  C_13 
REMARK    4  A    between atoms: C_16  and  C_17 
REMARK    5  A    between atoms: C_17  and  O_19 
ROOT
ATOM      1  C   UNL d   1     -24.240  23.401  22.751  0.00  0.00    -0.026 A 
ATOM      2  C   UNL d   1     -25.052  24.093  23.651  0.00  0.00     0.013 A 
ATOM      3  C   UNL d   1     -26.393  23.798  23.737  0.00  0.00     0.016 A 
ATOM      4  C   UNL d   1     -26.941  22.802  22.925  0.00  0.00     0.010 A 
ATOM      5  C   UNL d   1     -26.128  22.106  22.028  0.00  0.00     0.016 A 
ATOM      6  C   UNL d   1     -24.787  22.403  21.944  0.00  0.00     0.013 A 
ENDROOT
BRANCH   4   7
ATOM      7  C   UNL d   1     -28.382  22.485  23.015  0.00  0.00     0.139 A 
ATOM      8  N   UNL d   1     -29.288  22.643  22.003  0.00  0.00    -0.338 N 
ATOM      9  C   UNL d   1     -30.515  22.232  22.492  0.00  0.00     0.064 A 
ATOM     10  H   UNL d   1     -29.106  22.977  21.112  0.00  0.00     0.167 HD
ATOM     11  C   UNL d   1     -30.294  21.838  23.823  0.00  0.00     0.102 A 
ATOM     12  C   UNL d   1     -31.789  22.157  21.947  0.00  0.00     0.038 A 
ATOM     13  N   UNL d   1     -28.986  22.014  24.082  0.00  0.00    -0.227 NA
ATOM     14  C   UNL d   1     -31.380  21.368  24.594  0.00  0.00     0.069 A 
ATOM     15  C   UNL d   1     -32.649  21.303  24.022  0.00  0.00     0.027 A 
ATOM     16  C   UNL d   1     -32.845  21.695  22.710  0.00  0.00    -0.059 A 
ATOM     17  C   UNL d   1     -34.223  21.619  22.107  0.00  0.00     0.048 C 
BRANCH  14  18
ATOM     18  C   UNL d   1     -31.174  20.950  25.990  0.00  0.00     0.178 C 
ATOM     19  O   UNL d   1     -31.714  19.946  26.411  0.00  0.00    -0.646 OA
BRANCH  18  20
ATOM     20  O   UNL d   1     -30.385  21.681  26.803  0.00  0.00    -0.773 OA
ATOM     21  H   UNL d   1     -29.559  22.016  26.429  0.00  0.00     0.167 HD
ENDBRANCH  18  20
ENDBRANCH  14  18
ENDBRANCH   4   7
BRANCH   1  22
ATOM     22  C   UNL d   1     -22.797  23.724  22.655  0.00  0.00    -0.026 A 
ATOM     23  C   UNL d   1     -21.960  23.520  23.751  0.00  0.00     0.014 A 
ATOM     24  C   UNL d   1     -20.618  23.821  23.659  0.00  0.00     0.030 A 
ATOM     25  C   UNL d   1     -20.099  24.328  22.473  0.00  0.00     0.034 A 
ATOM     26  C   UNL d   1     -20.931  24.531  21.378  0.00  0.00     0.030 A 
ATOM     27  C   UNL d   1     -22.272  24.227  21.464  0.00  0.00     0.014 A 
BRANCH  25  28
ATOM     28  N   UNL d   1     -18.738  24.632  22.382  0.00  0.00    -0.328 N 
ATOM     29  C   UNL d   1     -18.247  25.720  23.008  0.00  0.00     0.218 C 
ATOM     30  C   UNL d   1     -16.805  26.114  22.813  0.00  0.00     0.117 C 
ATOM     31  O   UNL d   1     -18.964  26.381  23.728  0.00  0.00    -0.274 OA
ATOM     32  H   UNL d   1     -18.146  24.059  21.868  0.00  0.00     0.169 HD
ENDBRANCH  25  28
ENDBRANCH   1  22
TORSDOF 5
ENDMDL
