MODEL 1
REMARK VINA RESULT:      -9.7      0.000      0.000
REMARK  7 active torsions:
REMARK  status: ('A' for Active; 'I' for Inactive)
REMARK    1  A    between atoms: C_2  and  C_3 
REMARK    2  A    between atoms: C_3  and  O_5 
REMARK    3  A    between atoms: O_5  and  C_6 
REMARK    4  A    between atoms: C_8  and  N_9 
REMARK       I    between atoms: N_9  and  C_10 
REMARK    5  A    between atoms: C_10  and  C_12 
REMARK    6  A    between atoms: C_15  and  O_17 
REMARK    7  A    between atoms: C_21  and  C_22 
ROOT
ATOM      1  C   UNL d   1     -31.562  21.107  24.425  0.00  0.00     0.141 C 
ATOM      2  C   UNL d   1     -31.625  20.239  25.562  0.00  0.00     0.107 C 
ATOM      3  N   UNL d   1     -31.675  19.550  26.464  0.00  0.00    -0.191 NA
ATOM      4  C   UNL d   1     -32.639  21.226  23.597  0.00  0.00     0.065 C 
ATOM      5  C   UNL d   1     -33.895  20.443  23.879  0.00  0.00     0.077 C 
ENDROOT
BRANCH   1   6
ATOM      6  C   UNL d   1     -30.336  21.870  24.150  0.00  0.00     0.269 C 
ATOM      7  N   UNL d   1     -29.130  21.294  24.325  0.00  0.00    -0.320 N 
ATOM      8  H   UNL d   1     -29.071  20.361  24.580  0.00  0.00     0.169 HD
ATOM      9  O   UNL d   1     -30.411  23.022  23.765  0.00  0.00    -0.266 OA
BRANCH   7  10
ATOM     10  C   UNL d   1     -27.964  22.045  24.140  0.00  0.00     0.076 A 
ATOM     11  C   UNL d   1     -27.425  22.185  22.870  0.00  0.00     0.070 A 
ATOM     12  C   UNL d   1     -26.271  22.927  22.685  0.00  0.00     0.082 A 
ATOM     13  C   UNL d   1     -25.650  23.533  23.781  0.00  0.00     0.014 A 
ATOM     14  C   UNL d   1     -26.195  23.388  25.055  0.00  0.00     0.059 A 
ATOM     15  C   UNL d   1     -27.346  22.648  25.233  0.00  0.00     0.144 A 
ATOM     16  F   UNL d   1     -27.875  22.509  26.468  0.00  0.00    -0.204 F 
BRANCH  12  17
ATOM     17  O   UNL d   1     -25.742  23.064  21.440  0.00  0.00    -0.345 OA
BRANCH  17  18
ATOM     18  C   UNL d   1     -25.453  21.863  20.723  0.00  0.00     0.124 C 
ATOM     19  C   UNL d   1     -24.550  20.966  21.572  0.00  0.00     0.040 C 
BRANCH  18  20
ATOM     20  C   UNL d   1     -24.740  22.210  19.414  0.00  0.00     0.027 C 
ATOM     21  C   UNL d   1     -23.615  23.207  19.694  0.00  0.00     0.007 C 
ENDBRANCH  18  20
ENDBRANCH  17  18
ENDBRANCH  12  17
BRANCH  13  22
ATOM     22  C   UNL d   1     -24.413  24.329  23.588  0.00  0.00     0.015 A 
ATOM     23  C   UNL d   1     -24.457  25.722  23.670  0.00  0.00     0.127 A 
ATOM     24  C   UNL d   1     -23.300  26.457  23.490  0.00  0.00     0.043 A 
ATOM     25  F   UNL d   1     -25.626  26.349  23.926  0.00  0.00    -0.205 F 
ATOM     26  C   UNL d   1     -22.104  25.815  23.228  0.00  0.00     0.003 A 
ATOM     27  C   UNL d   1     -22.056  24.436  23.144  0.00  0.00     0.001 A 
ATOM     28  C   UNL d   1     -23.203  23.689  23.329  0.00  0.00     0.015 A 
ENDBRANCH  13  22
ENDBRANCH   7  10
ENDBRANCH   1   6
BRANCH   4  29
ATOM     29  O   UNL d   1     -32.580  22.041  22.530  0.00  0.00    -0.364 OA
ATOM     30  H   UNL d   1     -33.411  22.224  22.071  0.00  0.00     0.217 HD
ENDBRANCH   4  29
TORSDOF 7
ENDMDL
