MODEL 1
REMARK VINA RESULT:     -11.7      0.000      0.000
REMARK  4 active torsions:
REMARK  status: ('A' for Active; 'I' for Inactive)
REMARK    1  A    between atoms: C_2  and  O_3 
REMARK    2  A    between atoms: C_2  and  C_4 
REMARK    3  A    between atoms: C_11  and  C_12 
REMARK    4  A    between atoms: C_15  and  C_16 
ROOT
ATOM      1  C   UNL d   1     -32.625  21.534  23.044  0.00  0.00     0.068 A 
ATOM      2  C   UNL d   1     -33.569  20.999  23.917  0.00  0.00     0.021 A 
ATOM      3  C   UNL d   1     -33.188  20.543  25.165  0.00  0.00     0.003 A 
ATOM      4  C   UNL d   1     -31.868  20.612  25.567  0.00  0.00     0.032 A 
ATOM      5  C   UNL d   1     -30.906  21.139  24.720  0.00  0.00     0.064 A 
ATOM      6  N   UNL d   1     -29.542  21.340  24.825  0.00  0.00    -0.338 N 
ATOM      7  H   UNL d   1     -28.985  21.120  25.588  0.00  0.00     0.167 HD
ATOM      8  C   UNL d   1     -29.129  21.906  23.651  0.00  0.00     0.139 A 
ATOM      9  N   UNL d   1     -30.156  22.063  22.849  0.00  0.00    -0.227 NA
ATOM     10  C   UNL d   1     -31.272  21.608  23.444  0.00  0.00     0.102 A 
ENDROOT
BRANCH   8  11
ATOM     11  C   UNL d   1     -27.737  22.290  23.335  0.00  0.00     0.010 A 
ATOM     12  C   UNL d   1     -27.069  21.679  22.272  0.00  0.00     0.016 A 
ATOM     13  C   UNL d   1     -25.772  22.035  21.978  0.00  0.00     0.013 A 
ATOM     14  C   UNL d   1     -25.126  23.008  22.742  0.00  0.00    -0.026 A 
ATOM     15  C   UNL d   1     -25.793  23.620  23.804  0.00  0.00     0.013 A 
ATOM     16  C   UNL d   1     -27.090  23.264  24.098  0.00  0.00     0.016 A 
BRANCH  14  17
ATOM     17  C   UNL d   1     -23.729  23.392  22.424  0.00  0.00    -0.023 A 
ATOM     18  C   UNL d   1     -23.413  23.903  21.167  0.00  0.00     0.054 A 
ATOM     19  C   UNL d   1     -22.110  24.264  20.879  0.00  0.00     0.117 A 
ATOM     20  C   UNL d   1     -21.118  24.107  21.834  0.00  0.00     0.042 A 
ATOM     21  F   UNL d   1     -21.802  24.765  19.662  0.00  0.00    -0.206 F 
ATOM     22  C   UNL d   1     -21.428  23.595  23.081  0.00  0.00     0.004 A 
ATOM     23  C   UNL d   1     -22.726  23.236  23.381  0.00  0.00     0.012 A 
ENDBRANCH  14  17
ENDBRANCH   8  11
BRANCH   1  24
ATOM     24  C   UNL d   1     -33.032  22.018  21.715  0.00  0.00     0.178 C 
ATOM     25  O   UNL d   1     -34.162  22.429  21.538  0.00  0.00    -0.646 OA
BRANCH  24  26
ATOM     26  O   UNL d   1     -32.152  22.006  20.694  0.00  0.00    -0.773 OA
ATOM     27  H   UNL d   1     -32.071  21.184  20.193  0.00  0.00     0.167 HD
ENDBRANCH  24  26
ENDBRANCH   1  24
TORSDOF 4
ENDMDL
