MODEL 1
REMARK VINA RESULT:     -10.8      0.000      0.000
REMARK  5 active torsions:
REMARK  status: ('A' for Active; 'I' for Inactive)
REMARK    1  A    between atoms: C_5  and  N_6 
REMARK    2  A    between atoms: N_6  and  C_7 
REMARK    3  A    between atoms: C_10  and  C_11 
REMARK    4  A    between atoms: C_20  and  C_21 
REMARK    5  A    between atoms: C_21  and  O_23 
ROOT
ATOM      1  C   UNL d   1     -27.065  22.712  23.716  0.00  0.00     0.050 A 
ATOM      2  C   UNL d   1     -26.350  23.836  24.118  0.00  0.00     0.146 A 
ATOM      3  N   UNL d   1     -25.189  24.127  23.570  0.00  0.00    -0.258 NA
ATOM      4  C   UNL d   1     -24.663  23.376  22.611  0.00  0.00     0.072 A 
ATOM      5  C   UNL d   1     -25.326  22.238  22.153  0.00  0.00    -0.030 A 
ATOM      6  C   UNL d   1     -24.722  21.390  21.065  0.00  0.00     0.050 C 
ATOM      7  C   UNL d   1     -26.545  21.898  22.712  0.00  0.00     0.040 A 
ENDROOT
BRANCH   1   8
ATOM      8  N   UNL d   1     -28.292  22.407  24.308  0.00  0.00    -0.354 N 
ATOM      9  H   UNL d   1     -28.351  22.284  25.269  0.00  0.00     0.166 HD
BRANCH   8  10
ATOM     10  C   UNL d   1     -29.430  22.280  23.522  0.00  0.00     0.049 A 
ATOM     11  C   UNL d   1     -29.387  22.602  22.171  0.00  0.00     0.031 A 
ATOM     12  C   UNL d   1     -30.520  22.481  21.395  0.00  0.00     0.009 A 
ATOM     13  C   UNL d   1     -31.706  22.027  21.950  0.00  0.00    -0.061 A 
ATOM     14  C   UNL d   1     -32.935  21.892  21.087  0.00  0.00     0.048 C 
ATOM     15  C   UNL d   1     -31.770  21.702  23.287  0.00  0.00     0.027 A 
ATOM     16  C   UNL d   1     -30.632  21.825  24.089  0.00  0.00     0.064 A 
BRANCH  16  17
ATOM     17  C   UNL d   1     -30.693  21.480  25.520  0.00  0.00     0.178 C 
ATOM     18  O   UNL d   1     -31.580  21.932  26.217  0.00  0.00    -0.646 OA
BRANCH  17  19
ATOM     19  O   UNL d   1     -29.764  20.664  26.056  0.00  0.00    -0.773 OA
ATOM     20  H   UNL d   1     -29.953  20.301  26.933  0.00  0.00     0.167 HD
ENDBRANCH  17  19
ENDBRANCH  16  17
ENDBRANCH   8  10
ENDBRANCH   1   8
BRANCH   4  21
ATOM     21  C   UNL d   1     -23.356  23.751  22.019  0.00  0.00    -0.007 A 
ATOM     22  C   UNL d   1     -23.307  24.409  20.791  0.00  0.00     0.014 A 
ATOM     23  C   UNL d   1     -22.087  24.755  20.245  0.00  0.00     0.001 A 
ATOM     24  C   UNL d   1     -20.916  24.450  20.914  0.00  0.00     0.000 A 
ATOM     25  C   UNL d   1     -20.959  23.798  22.133  0.00  0.00     0.001 A 
ATOM     26  C   UNL d   1     -22.172  23.452  22.692  0.00  0.00     0.014 A 
ENDBRANCH   4  21
TORSDOF 5
ENDMDL
