MODEL 1
REMARK VINA RESULT:     -11.5      0.000      0.000
REMARK  9 active torsions:
REMARK  status: ('A' for Active; 'I' for Inactive)
REMARK    1  A    between atoms: C_3  and  N_4 
REMARK    2  A    between atoms: N_4  and  C_5 
REMARK    3  A    between atoms: C_13  and  O_14 
REMARK    4  A    between atoms: C_19  and  O_20 
REMARK    5  A    between atoms: O_20  and  C_21 
REMARK       I    between atoms: N_24  and  C_25 
REMARK    6  A    between atoms: C_25  and  C_27 
REMARK    7  A    between atoms: C_27  and  C_28 
REMARK    8  A    between atoms: C_28  and  C_29 
REMARK    9  A    between atoms: C_28  and  C_33 
ROOT
ATOM      1  C   UNL d   1     -24.739  25.885  24.210  0.00  0.00     0.053 C 
ATOM      2  C   UNL d   1     -24.578  24.660  23.347  0.00  0.00    -0.002 A 
ATOM      3  C   UNL d   1     -23.603  24.629  22.359  0.00  0.00     0.044 A 
ATOM      4  C   UNL d   1     -23.462  23.501  21.560  0.00  0.00     0.054 A 
ATOM      5  C   UNL d   1     -24.288  22.410  21.753  0.00  0.00     0.038 A 
ATOM      6 CL   UNL d   1     -24.110  21.001  20.754  0.00  0.00    -0.084 Cl
ATOM      7  C   UNL d   1     -25.255  22.438  22.741  0.00  0.00     0.061 A 
ATOM      8  C   UNL d   1     -25.401  23.562  23.541  0.00  0.00     0.079 A 
ENDROOT
BRANCH   8   9
ATOM      9  O   UNL d   1     -26.352  23.587  24.511  0.00  0.00    -0.345 OA
BRANCH   9  10
ATOM     10  C   UNL d   1     -27.403  22.625  24.414  0.00  0.00     0.132 C 
ATOM     11  C   UNL d   1     -28.466  23.128  23.433  0.00  0.00     0.052 C 
ATOM     12  C   UNL d   1     -29.575  22.073  23.304  0.00  0.00     0.128 C 
ATOM     13  N   UNL d   1     -30.089  21.768  24.645  0.00  0.00    -0.352 N 
ATOM     14  C   UNL d   1     -29.140  21.363  25.691  0.00  0.00     0.128 C 
ATOM     15  C   UNL d   1     -31.407  21.854  24.912  0.00  0.00     0.220 C 
ATOM     16  C   UNL d   1     -28.036  22.420  25.792  0.00  0.00     0.052 C 
ATOM     17  O   UNL d   1     -31.821  21.596  26.022  0.00  0.00    -0.273 OA
BRANCH  15  18
ATOM     18  C   UNL d   1     -32.369  22.273  23.829  0.00  0.00     0.125 C 
BRANCH  18  19
ATOM     19  C   UNL d   1     -32.503  21.145  22.802  0.00  0.00     0.209 C 
BRANCH  19  20
ATOM     20  C   UNL d   1     -33.031  21.715  21.484  0.00  0.00     0.400 C 
ATOM     21  F   UNL d   1     -33.557  20.679  20.706  0.00  0.00    -0.170 F 
ATOM     22  F   UNL d   1     -34.033  22.655  21.751  0.00  0.00    -0.170 F 
ATOM     23  F   UNL d   1     -31.985  22.334  20.792  0.00  0.00    -0.170 F 
ENDBRANCH  19  20
BRANCH  19  24
ATOM     24  C   UNL d   1     -33.479  20.090  23.328  0.00  0.00     0.400 C 
ATOM     25  F   UNL d   1     -33.923  19.295  22.267  0.00  0.00    -0.170 F 
ATOM     26  F   UNL d   1     -32.831  19.288  24.274  0.00  0.00    -0.170 F 
ATOM     27  F   UNL d   1     -34.573  20.725  23.927  0.00  0.00    -0.170 F 
ENDBRANCH  19  24
ENDBRANCH  18  19
ENDBRANCH  15  18
ENDBRANCH   9  10
ENDBRANCH   8   9
BRANCH   3  28
ATOM     28  N   UNL d   1     -22.768  25.733  22.165  0.00  0.00    -0.335 N 
ATOM     29  H   UNL d   1     -22.992  26.399  21.497  0.00  0.00     0.168 HD
BRANCH  28  30
ATOM     30  C   UNL d   1     -21.620  25.876  22.930  0.00  0.00     0.172 A 
ATOM     31  S   UNL d   1     -21.594  26.217  24.604  0.00  0.00    -0.054 SA
ATOM     32  C   UNL d   1     -19.835  26.193  24.593  0.00  0.00     0.013 A 
ATOM     33  C   UNL d   1     -19.416  25.940  23.342  0.00  0.00     0.079 A 
ATOM     34  C   UNL d   1     -18.935  26.424  25.783  0.00  0.00     0.048 C 
ATOM     35  N   UNL d   1     -20.412  25.776  22.479  0.00  0.00    -0.225 NA
ATOM     36  C   UNL d   1     -17.943  25.855  22.971  0.00  0.00     0.171 C 
ATOM     37  C   UNL d   1     -17.125  25.658  24.249  0.00  0.00     0.038 C 
ATOM     38  C   UNL d   1     -17.520  26.723  25.275  0.00  0.00     0.008 C 
BRANCH  36  39
ATOM     39  O   UNL d   1     -17.734  24.747  22.093  0.00  0.00    -0.389 OA
ATOM     40  H   UNL d   1     -17.716  24.985  21.156  0.00  0.00     0.210 HD
ENDBRANCH  36  39
ENDBRANCH  28  30
ENDBRANCH   3  28
TORSDOF 9
ENDMDL
