MODEL 1
REMARK VINA RESULT:     -11.9      0.000      0.000
REMARK  7 active torsions:
REMARK  status: ('A' for Active; 'I' for Inactive)
REMARK    1  A    between atoms: C_4  and  C_5 
REMARK    2  A    between atoms: C_5  and  O_7 
REMARK    3  A    between atoms: C_10  and  C_11 
REMARK    4  A    between atoms: C_14  and  C_15 
REMARK    5  A    between atoms: C_18  and  O_19 
REMARK    6  A    between atoms: O_19  and  C_20 
REMARK    7  A    between atoms: C_20  and  C_21 
ROOT
ATOM      1  C   UNL d   1     -26.807  22.872  22.988  0.00  0.00     0.010 A 
ATOM      2  C   UNL d   1     -26.273  23.871  23.808  0.00  0.00     0.016 A 
ATOM      3  C   UNL d   1     -24.933  24.175  23.738  0.00  0.00     0.013 A 
ATOM      4  C   UNL d   1     -24.106  23.487  22.849  0.00  0.00    -0.026 A 
ATOM      5  C   UNL d   1     -24.638  22.493  22.026  0.00  0.00     0.013 A 
ATOM      6  C   UNL d   1     -25.978  22.184  22.099  0.00  0.00     0.016 A 
ENDROOT
BRANCH   1   7
ATOM      7  C   UNL d   1     -28.245  22.546  23.062  0.00  0.00     0.139 A 
ATOM      8  N   UNL d   1     -28.862  22.084  24.125  0.00  0.00    -0.227 NA
ATOM      9  C   UNL d   1     -30.164  21.895  23.851  0.00  0.00     0.102 A 
ATOM     10  C   UNL d   1     -31.258  21.425  24.612  0.00  0.00     0.069 A 
ATOM     11  C   UNL d   1     -30.368  22.272  22.511  0.00  0.00     0.064 A 
ATOM     12  C   UNL d   1     -32.518  21.346  24.021  0.00  0.00     0.027 A 
ATOM     13  C   UNL d   1     -32.697  21.722  22.703  0.00  0.00    -0.059 A 
ATOM     14  C   UNL d   1     -34.067  21.628  22.081  0.00  0.00     0.048 C 
ATOM     15  C   UNL d   1     -31.633  22.181  21.950  0.00  0.00     0.038 A 
ATOM     16  N   UNL d   1     -29.138  22.686  22.037  0.00  0.00    -0.338 N 
ATOM     17  H   UNL d   1     -28.945  23.013  21.144  0.00  0.00     0.167 HD
BRANCH  10  18
ATOM     18  C   UNL d   1     -31.069  21.025  26.015  0.00  0.00     0.178 C 
ATOM     19  O   UNL d   1     -31.625  20.032  26.444  0.00  0.00    -0.646 OA
BRANCH  18  20
ATOM     20  O   UNL d   1     -30.281  21.759  26.825  0.00  0.00    -0.773 OA
ATOM     21  H   UNL d   1     -30.526  21.796  27.760  0.00  0.00     0.167 HD
ENDBRANCH  18  20
ENDBRANCH  10  18
ENDBRANCH   1   7
BRANCH   4  22
ATOM     22  C   UNL d   1     -22.663  23.815  22.774  0.00  0.00    -0.026 A 
ATOM     23  C   UNL d   1     -21.926  23.994  23.945  0.00  0.00     0.015 A 
ATOM     24  C   UNL d   1     -20.582  24.294  23.872  0.00  0.00     0.037 A 
ATOM     25  C   UNL d   1     -19.964  24.430  22.635  0.00  0.00     0.069 A 
ATOM     26  C   UNL d   1     -20.695  24.252  21.468  0.00  0.00     0.037 A 
ATOM     27  C   UNL d   1     -22.038  23.946  21.534  0.00  0.00     0.015 A 
BRANCH  25  28
ATOM     28  O   UNL d   1     -18.642  24.730  22.568  0.00  0.00    -0.347 OA
BRANCH  28  29
ATOM     29  C   UNL d   1     -18.165  25.762  23.434  0.00  0.00     0.214 C 
BRANCH  29  30
ATOM     30  C   UNL d   1     -16.870  26.312  22.895  0.00  0.00    -0.031 A 
ATOM     31  C   UNL d   1     -16.669  27.680  22.788  0.00  0.00     0.028 A 
ATOM     32  C   UNL d   1     -15.468  28.148  22.288  0.00  0.00     0.116 A 
ATOM     33  N   UNL d   1     -14.520  27.310  21.917  0.00  0.00    -0.273 NA
ATOM     34  C   UNL d   1     -14.675  26.004  22.005  0.00  0.00     0.116 A 
ATOM     35  C   UNL d   1     -15.850  25.463  22.495  0.00  0.00     0.028 A 
ENDBRANCH  29  30
ENDBRANCH  28  29
ENDBRANCH  25  28
ENDBRANCH   4  22
TORSDOF 7
ENDMDL
