MODEL 1
REMARK VINA RESULT:     -11.6      0.000      0.000
REMARK  4 active torsions:
REMARK  status: ('A' for Active; 'I' for Inactive)
REMARK    1  A    between atoms: C_2  and  O_3 
REMARK    2  A    between atoms: C_2  and  C_4 
REMARK    3  A    between atoms: C_12  and  C_13 
REMARK    4  A    between atoms: C_16  and  C_17 
ROOT
ATOM      1  C   UNL d   1     -32.222  21.634  22.527  0.00  0.00     0.070 A 
ATOM      2  C   UNL d   1     -33.227  21.139  23.355  0.00  0.00     0.044 A 
ATOM      3  C   UNL d   1     -32.937  20.747  24.649  0.00  0.00     0.037 A 
ATOM      4 CL   UNL d   1     -34.204  20.131  25.665  0.00  0.00    -0.084 Cl
ATOM      5  C   UNL d   1     -31.649  20.841  25.143  0.00  0.00     0.056 A 
ATOM      6  C   UNL d   1     -30.630  21.332  24.341  0.00  0.00     0.065 A 
ATOM      7  N   UNL d   1     -29.276  21.539  24.534  0.00  0.00    -0.338 N 
ATOM      8  H   UNL d   1     -28.774  21.354  25.343  0.00  0.00     0.167 HD
ATOM      9  C   UNL d   1     -28.780  22.054  23.368  0.00  0.00     0.139 A 
ATOM     10  N   UNL d   1     -29.746  22.162  22.485  0.00  0.00    -0.227 NA
ATOM     11  C   UNL d   1     -30.902  21.735  23.022  0.00  0.00     0.102 A 
ENDROOT
BRANCH   9  12
ATOM     12  C   UNL d   1     -27.369  22.427  23.135  0.00  0.00     0.010 A 
ATOM     13  C   UNL d   1     -26.789  23.460  23.875  0.00  0.00     0.016 A 
ATOM     14  C   UNL d   1     -25.473  23.803  23.662  0.00  0.00     0.013 A 
ATOM     15  C   UNL d   1     -24.722  23.126  22.700  0.00  0.00    -0.023 A 
ATOM     16  C   UNL d   1     -25.301  22.094  21.960  0.00  0.00     0.013 A 
ATOM     17  C   UNL d   1     -26.616  21.746  22.176  0.00  0.00     0.016 A 
BRANCH  15  18
ATOM     18  C   UNL d   1     -23.306  23.500  22.467  0.00  0.00     0.013 A 
ATOM     19  C   UNL d   1     -22.907  23.993  21.224  0.00  0.00     0.127 A 
ATOM     20  C   UNL d   1     -21.584  24.334  21.012  0.00  0.00     0.043 A 
ATOM     21  F   UNL d   1     -23.809  24.131  20.228  0.00  0.00    -0.205 F 
ATOM     22  C   UNL d   1     -20.661  24.199  22.033  0.00  0.00     0.003 A 
ATOM     23  C   UNL d   1     -21.054  23.717  23.269  0.00  0.00     0.001 A 
ATOM     24  C   UNL d   1     -22.370  23.367  23.491  0.00  0.00     0.015 A 
ENDBRANCH  15  18
ENDBRANCH   9  12
BRANCH   1  25
ATOM     25  C   UNL d   1     -32.532  22.051  21.150  0.00  0.00     0.178 C 
ATOM     26  O   UNL d   1     -33.684  22.261  20.824  0.00  0.00    -0.646 OA
BRANCH  25  27
ATOM     27  O   UNL d   1     -31.540  22.199  20.251  0.00  0.00    -0.773 OA
ATOM     28  H   UNL d   1     -31.719  21.907  19.346  0.00  0.00     0.167 HD
ENDBRANCH  25  27
ENDBRANCH   1  25
TORSDOF 4
ENDMDL
