MODEL 1
REMARK VINA RESULT:     -10.2      0.000      0.000
REMARK  7 active torsions:
REMARK  status: ('A' for Active; 'I' for Inactive)
REMARK    1  A    between atoms: O_2  and  C_3 
REMARK    2  A    between atoms: C_7  and  N_8 
REMARK       I    between atoms: N_8  and  C_9 
REMARK    3  A    between atoms: C_9  and  C_11 
REMARK    4  A    between atoms: C_15  and  N_16 
REMARK    5  A    between atoms: C_27  and  O_28 
REMARK    6  A    between atoms: O_28  and  C_29 
REMARK    7  A    between atoms: C_29  and  C_31 
ROOT
ATOM      1  C   UNL d   1     -24.109  24.330  23.401  0.00  0.00     0.067 A 
ATOM      2  C   UNL d   1     -24.930  24.844  24.410  0.00  0.00     0.046 A 
ATOM      3  C   UNL d   1     -26.188  24.322  24.604  0.00  0.00     0.064 A 
ATOM      4 CL   UNL d   1     -27.207  24.965  25.854  0.00  0.00    -0.082 Cl
ATOM      5  C   UNL d   1     -26.645  23.275  23.805  0.00  0.00     0.088 A 
ATOM      6  C   UNL d   1     -25.837  22.760  22.801  0.00  0.00     0.071 A 
ATOM      7  C   UNL d   1     -24.572  23.281  22.593  0.00  0.00     0.087 A 
ENDROOT
BRANCH   1   8
ATOM      8  C   UNL d   1     -22.763  24.891  23.185  0.00  0.00     0.259 C 
ATOM      9  N   UNL d   1     -21.682  24.249  23.668  0.00  0.00    -0.321 N 
ATOM     10  H   UNL d   1     -21.782  23.387  24.102  0.00  0.00     0.169 HD
ATOM     11  O   UNL d   1     -22.629  25.932  22.572  0.00  0.00    -0.267 OA
BRANCH   9  12
ATOM     12  C   UNL d   1     -20.411  24.826  23.544  0.00  0.00     0.058 A 
ATOM     13  C   UNL d   1     -19.960  25.750  24.485  0.00  0.00    -0.030 A 
ATOM     14  C   UNL d   1     -18.696  26.290  24.324  0.00  0.00     0.067 A 
ATOM     15  C   UNL d   1     -20.825  26.148  25.652  0.00  0.00     0.050 C 
ATOM     16  C   UNL d   1     -17.929  25.904  23.232  0.00  0.00     0.164 A 
ATOM     17  N   UNL d   1     -18.391  25.029  22.356  0.00  0.00    -0.235 NA
ATOM     18  C   UNL d   1     -19.589  24.490  22.479  0.00  0.00     0.149 A 
BRANCH  16  19
ATOM     19  O   UNL d   1     -16.690  26.433  23.063  0.00  0.00    -0.339 OA
ATOM     20  C   UNL d   1     -15.734  25.636  22.362  0.00  0.00     0.211 C 
ENDBRANCH  16  19
ENDBRANCH   9  12
ENDBRANCH   1   8
BRANCH   7  21
ATOM     21  O   UNL d   1     -23.781  22.779  21.611  0.00  0.00    -0.336 OA
BRANCH  21  22
ATOM     22  C   UNL d   1     -23.895  23.375  20.317  0.00  0.00     0.232 C 
ATOM     23  C   UNL d   1     -22.508  23.793  19.825  0.00  0.00     0.049 C 
BRANCH  22  24
ATOM     24  C   UNL d   1     -24.500  22.365  19.340  0.00  0.00     0.413 C 
ATOM     25  F   UNL d   1     -25.770  21.986  19.789  0.00  0.00    -0.168 F 
ATOM     26  F   UNL d   1     -24.607  22.948  18.073  0.00  0.00    -0.168 F 
ATOM     27  F   UNL d   1     -23.676  21.237  19.267  0.00  0.00    -0.168 F 
ENDBRANCH  22  24
ENDBRANCH  21  22
ENDBRANCH   7  21
BRANCH   5  28
ATOM     28  N   UNL d   1     -27.920  22.748  24.011  0.00  0.00    -0.179 N 
ATOM     29  C   UNL d   1     -28.318  22.001  25.064  0.00  0.00     0.351 A 
ATOM     30  N   UNL d   1     -29.621  21.725  24.891  0.00  0.00    -0.284 N 
ATOM     31  O   UNL d   1     -27.622  21.644  25.998  0.00  0.00    -0.244 OA
ATOM     32  C   UNL d   1     -30.026  22.275  23.693  0.00  0.00     0.131 A 
ATOM     33  C   UNL d   1     -30.505  20.989  25.802  0.00  0.00     0.135 C 
ATOM     34  N   UNL d   1     -29.028  22.893  23.161  0.00  0.00    -0.149 NA
ATOM     35  C   UNL d   1     -31.424  22.138  23.137  0.00  0.00     0.081 C 
ATOM     36  C   UNL d   1     -32.354  21.726  24.286  0.00  0.00     0.009 C 
ATOM     37  C   UNL d   1     -31.740  20.528  25.019  0.00  0.00     0.021 C 
ENDBRANCH   5  28
TORSDOF 7
ENDMDL
