MODEL 1
REMARK VINA RESULT:     -11.7      0.000      0.000
REMARK  7 active torsions:
REMARK  status: ('A' for Active; 'I' for Inactive)
REMARK       I    between atoms: C_2  and  N_3 
REMARK    1  A    between atoms: C_2  and  C_25 
REMARK    2  A    between atoms: N_3  and  C_4 
REMARK    3  A    between atoms: C_9  and  C_10 
REMARK    4  A    between atoms: C_14  and  O_15 
REMARK    5  A    between atoms: O_15  and  C_16 
REMARK    6  A    between atoms: C_29  and  C_30 
REMARK    7  A    between atoms: C_30  and  O_32 
ROOT
ATOM      1  C   UNL d   1     -27.064  22.202  22.815  0.00  0.00     0.119 A 
ATOM      2  C   UNL d   1     -26.436  21.667  21.695  0.00  0.00     0.185 A 
ATOM      3  F   UNL d   1     -27.040  20.693  20.982  0.00  0.00    -0.200 F 
ATOM      4  C   UNL d   1     -25.194  22.137  21.310  0.00  0.00     0.171 A 
ATOM      5  F   UNL d   1     -24.585  21.621  20.219  0.00  0.00    -0.202 F 
ATOM      6  C   UNL d   1     -24.566  23.139  22.050  0.00  0.00     0.058 A 
ATOM      7  C   UNL d   1     -25.197  23.670  23.176  0.00  0.00     0.171 A 
ATOM      8  F   UNL d   1     -24.593  24.641  23.896  0.00  0.00    -0.202 F 
ATOM      9  C   UNL d   1     -26.442  23.201  23.556  0.00  0.00     0.185 A 
ATOM     10  F   UNL d   1     -27.054  23.715  24.645  0.00  0.00    -0.200 F 
ENDROOT
BRANCH   1  11
ATOM     11  N   UNL d   1     -28.323  21.729  23.201  0.00  0.00    -0.318 N 
ATOM     12  C   UNL d   1     -29.432  22.429  22.883  0.00  0.00     0.257 C 
ATOM     13  O   UNL d   1     -29.347  23.413  22.174  0.00  0.00    -0.267 OA
ATOM     14  H   UNL d   1     -28.400  20.899  23.697  0.00  0.00     0.169 HD
BRANCH  12  15
ATOM     15  C   UNL d   1     -30.748  21.998  23.394  0.00  0.00     0.056 A 
ATOM     16  C   UNL d   1     -31.859  21.820  22.593  0.00  0.00     0.093 A 
ATOM     17  S   UNL d   1     -33.208  21.299  23.592  0.00  0.00    -0.094 SA
ATOM     18  C   UNL d   1     -32.252  21.349  25.002  0.00  0.00     0.052 A 
ATOM     19  C   UNL d   1     -31.003  21.732  24.732  0.00  0.00     0.026 A 
BRANCH  16  20
ATOM     20  C   UNL d   1     -31.904  22.027  21.140  0.00  0.00     0.184 C 
ATOM     21  O   UNL d   1     -32.972  22.195  20.583  0.00  0.00    -0.646 OA
BRANCH  20  22
ATOM     22  O   UNL d   1     -30.761  22.030  20.424  0.00  0.00    -0.772 OA
ATOM     23  H   UNL d   1     -30.209  21.237  20.476  0.00  0.00     0.167 HD
ENDBRANCH  20  22
ENDBRANCH  16  20
ENDBRANCH  12  15
ENDBRANCH   1  11
BRANCH   6  24
ATOM     24  C   UNL d   1     -23.232  23.641  21.642  0.00  0.00    -0.017 A 
ATOM     25  C   UNL d   1     -22.154  23.552  22.519  0.00  0.00     0.049 A 
ATOM     26  C   UNL d   1     -20.908  24.016  22.130  0.00  0.00     0.079 A 
ATOM     27  C   UNL d   1     -20.739  24.580  20.873  0.00  0.00     0.037 A 
ATOM     28  C   UNL d   1     -21.811  24.676  20.004  0.00  0.00     0.004 A 
ATOM     29  C   UNL d   1     -23.054  24.209  20.381  0.00  0.00     0.012 A 
BRANCH  26  30
ATOM     30  O   UNL d   1     -19.852  23.924  22.981  0.00  0.00    -0.255 OA
BRANCH  30  31
ATOM     31  C   UNL d   1     -19.391  25.140  23.574  0.00  0.00     0.530 C 
ATOM     32  F   UNL d   1     -18.917  24.879  24.865  0.00  0.00    -0.144 F 
ATOM     33  F   UNL d   1     -18.357  25.674  22.798  0.00  0.00    -0.144 F 
ATOM     34  F   UNL d   1     -20.445  26.056  23.640  0.00  0.00    -0.144 F 
ENDBRANCH  30  31
ENDBRANCH  26  30
ENDBRANCH   6  24
TORSDOF 7
ENDMDL
