MODEL 1
REMARK VINA RESULT:     -13.3      0.000      0.000
REMARK  6 active torsions:
REMARK  status: ('A' for Active; 'I' for Inactive)
REMARK    1  A    between atoms: C_6  and  C_7 
REMARK    2  A    between atoms: C_12  and  C_13 
REMARK    3  A    between atoms: C_17  and  C_18 
REMARK    4  A    between atoms: C_18  and  N_19 
REMARK    5  A    between atoms: C_31  and  C_32 
REMARK    6  A    between atoms: C_32  and  O_34 
ROOT
ATOM      1  C   UNL d   1     -26.787  22.820  23.019  0.00  0.00     0.058 A 
ATOM      2  C   UNL d   1     -26.242  23.926  23.675  0.00  0.00     0.170 A 
ATOM      3  F   UNL d   1     -27.002  24.645  24.530  0.00  0.00    -0.202 F 
ATOM      4  C   UNL d   1     -24.927  24.284  23.450  0.00  0.00     0.170 A 
ATOM      5  F   UNL d   1     -24.400  25.355  24.083  0.00  0.00    -0.202 F 
ATOM      6  C   UNL d   1     -24.143  23.541  22.566  0.00  0.00     0.058 A 
ATOM      7  C   UNL d   1     -24.688  22.438  21.906  0.00  0.00     0.170 A 
ATOM      8  F   UNL d   1     -23.931  21.721  21.047  0.00  0.00    -0.202 F 
ATOM      9  C   UNL d   1     -26.002  22.076  22.137  0.00  0.00     0.170 A 
ATOM     10  F   UNL d   1     -26.529  21.005  21.503  0.00  0.00    -0.202 F 
ENDROOT
BRANCH   1  11
ATOM     11  C   UNL d   1     -28.198  22.435  23.261  0.00  0.00    -0.016 A 
ATOM     12  C   UNL d   1     -29.125  22.627  22.256  0.00  0.00     0.048 A 
ATOM     13  C   UNL d   1     -30.467  22.267  22.452  0.00  0.00     0.111 A 
ATOM     14  N   UNL d   1     -31.583  22.303  21.740  0.00  0.00    -0.153 NA
ATOM     15  C   UNL d   1     -30.871  21.696  23.746  0.00  0.00     0.126 A 
ATOM     16  N   UNL d   1     -32.546  21.833  22.454  0.00  0.00    -0.192 N 
ATOM     17  C   UNL d   1     -33.928  21.723  21.981  0.00  0.00     0.204 C 
ATOM     18  N   UNL d   1     -32.164  21.471  23.629  0.00  0.00    -0.152 NA
ATOM     19  C   UNL d   1     -29.853  21.519  24.780  0.00  0.00     0.071 A 
ATOM     20  C   UNL d   1     -28.549  21.894  24.505  0.00  0.00     0.033 A 
BRANCH  19  21
ATOM     21  C   UNL d   1     -30.208  20.952  26.091  0.00  0.00     0.178 C 
ATOM     22  O   UNL d   1     -30.209  21.660  27.080  0.00  0.00    -0.646 OA
BRANCH  21  23
ATOM     23  O   UNL d   1     -30.534  19.647  26.197  0.00  0.00    -0.773 OA
ATOM     24  H   UNL d   1     -31.331  19.433  26.700  0.00  0.00     0.167 HD
ENDBRANCH  21  23
ENDBRANCH  19  21
ENDBRANCH   1  11
BRANCH   6  25
ATOM     25  C   UNL d   1     -22.732  23.926  22.322  0.00  0.00    -0.019 A 
ATOM     26  C   UNL d   1     -21.879  24.176  23.397  0.00  0.00     0.021 A 
ATOM     27  C   UNL d   1     -20.568  24.539  23.163  0.00  0.00    -0.029 A 
ATOM     28  C   UNL d   1     -20.097  24.647  21.868  0.00  0.00     0.009 A 
ATOM     29  C   UNL d   1     -20.937  24.395  20.797  0.00  0.00     0.001 A 
ATOM     30  C   UNL d   1     -22.251  24.036  21.018  0.00  0.00     0.012 A 
BRANCH  27  31
ATOM     31  C   UNL d   1     -19.647  24.815  24.324  0.00  0.00     0.311 C 
BRANCH  31  32
ATOM     32  N   UNL d   1     -20.324  25.693  25.288  0.00  0.00     0.092 N 
ATOM     33  C   UNL d   1     -19.420  26.067  26.383  0.00  0.00     0.272 C 
ATOM     34  C   UNL d   1     -20.196  26.858  27.439  0.00  0.00     0.030 C 
ATOM     35  C   UNL d   1     -20.791  28.112  26.795  0.00  0.00     0.003 C 
ATOM     36  C   UNL d   1     -21.690  27.698  25.626  0.00  0.00     0.030 C 
ATOM     37  C   UNL d   1     -20.871  26.882  24.623  0.00  0.00     0.272 C 
ENDBRANCH  31  32
ENDBRANCH  27  31
ENDBRANCH   6  25
TORSDOF 6
ENDMDL
