MODEL 1
REMARK VINA RESULT:      -9.5      0.000      0.000
REMARK  3 active torsions:
REMARK  status: ('A' for Active; 'I' for Inactive)
REMARK    1  A    between atoms: C_10  and  N_11 
REMARK    2  A    between atoms: N_11  and  C_12 
REMARK    3  A    between atoms: C_15  and  C_16 
ROOT
ATOM      1  N   UNL d   1     -26.693  22.439  23.775  0.00  0.00    -0.341 N 
ATOM      2  H   UNL d   1     -26.184  21.646  24.002  0.00  0.00     0.167 HD
ENDROOT
BRANCH   1   3
ATOM      3  C   UNL d   1     -26.083  23.675  23.781  0.00  0.00     0.138 A 
ATOM      4  N   UNL d   1     -26.585  24.819  24.300  0.00  0.00    -0.261 N 
ATOM      5  N   UNL d   1     -25.656  25.850  24.097  0.00  0.00    -0.177 NA
ATOM      6  H   UNL d   1     -27.444  24.911  24.740  0.00  0.00     0.191 HD
ATOM      7  C   UNL d   1     -24.624  25.378  23.482  0.00  0.00     0.072 A 
ATOM      8  C   UNL d   1     -23.366  26.073  23.021  0.00  0.00     0.062 C 
ATOM      9  C   UNL d   1     -24.839  23.984  23.261  0.00  0.00     0.081 A 
ATOM     10  C   UNL d   1     -22.808  25.287  21.831  0.00  0.00     0.014 C 
ATOM     11  C   UNL d   1     -22.574  23.824  22.205  0.00  0.00     0.084 C 
ATOM     12  C   UNL d   1     -23.878  23.173  22.610  0.00  0.00     0.165 C 
ATOM     13  O   UNL d   1     -24.093  21.999  22.385  0.00  0.00    -0.292 OA
ENDBRANCH   1   3
BRANCH   1  14
ATOM     14  C   UNL d   1     -28.044  22.329  23.439  0.00  0.00     0.033 A 
ATOM     15  C   UNL d   1     -28.459  22.558  22.133  0.00  0.00     0.030 A 
ATOM     16  C   UNL d   1     -29.795  22.448  21.803  0.00  0.00     0.018 A 
ATOM     17  C   UNL d   1     -30.721  22.110  22.773  0.00  0.00     0.048 A 
ATOM     18  C   UNL d   1     -30.314  21.880  24.075  0.00  0.00     0.018 A 
ATOM     19  C   UNL d   1     -28.977  21.984  24.409  0.00  0.00     0.030 A 
BRANCH  17  20
ATOM     20  C   UNL d   1     -32.179  21.991  22.411  0.00  0.00     0.417 C 
ATOM     21  F   UNL d   1     -32.656  20.734  22.799  0.00  0.00    -0.166 F 
ATOM     22  F   UNL d   1     -32.907  22.989  23.068  0.00  0.00    -0.166 F 
ATOM     23  F   UNL d   1     -32.329  22.139  21.028  0.00  0.00    -0.166 F 
ENDBRANCH  17  20
ENDBRANCH   1  14
TORSDOF 3
ENDMDL
