MODEL 1
REMARK VINA RESULT:     -12.3      0.000      0.000
REMARK  7 active torsions:
REMARK  status: ('A' for Active; 'I' for Inactive)
REMARK    1  A    between atoms: C_4  and  C_5 
REMARK    2  A    between atoms: C_5  and  O_7 
REMARK    3  A    between atoms: C_10  and  C_11 
REMARK    4  A    between atoms: C_14  and  C_15 
REMARK    5  A    between atoms: C_18  and  O_19 
REMARK    6  A    between atoms: O_19  and  C_20 
REMARK    7  A    between atoms: C_20  and  C_21 
ROOT
ATOM      1  C   UNL d   1     -27.935  22.320  23.412  0.00  0.00     0.010 A 
ATOM      2  C   UNL d   1     -27.332  23.198  24.317  0.00  0.00     0.016 A 
ATOM      3  C   UNL d   1     -26.013  23.553  24.156  0.00  0.00     0.013 A 
ATOM      4  C   UNL d   1     -25.276  23.037  23.089  0.00  0.00    -0.026 A 
ATOM      5  C   UNL d   1     -25.878  22.165  22.181  0.00  0.00     0.013 A 
ATOM      6  C   UNL d   1     -27.196  21.804  22.344  0.00  0.00     0.016 A 
ENDROOT
BRANCH   1   7
ATOM      7  C   UNL d   1     -29.352  21.939  23.583  0.00  0.00     0.139 A 
ATOM      8  N   UNL d   1     -30.290  22.087  22.677  0.00  0.00    -0.227 NA
ATOM      9  C   UNL d   1     -31.462  21.638  23.158  0.00  0.00     0.102 A 
ATOM     10  C   UNL d   1     -32.767  21.562  22.619  0.00  0.00     0.069 A 
ATOM     11  C   UNL d   1     -31.230  21.175  24.465  0.00  0.00     0.064 A 
ATOM     12  C   UNL d   1     -33.796  21.028  23.392  0.00  0.00     0.027 A 
ATOM     13  C   UNL d   1     -33.546  20.577  24.674  0.00  0.00    -0.059 A 
ATOM     14  C   UNL d   1     -34.671  20.003  25.496  0.00  0.00     0.048 C 
ATOM     15  C   UNL d   1     -32.275  20.649  25.211  0.00  0.00     0.038 A 
ATOM     16  N   UNL d   1     -29.883  21.371  24.708  0.00  0.00    -0.338 N 
ATOM     17  H   UNL d   1     -29.407  21.149  25.523  0.00  0.00     0.167 HD
BRANCH  10  18
ATOM     18  C   UNL d   1     -33.035  22.041  21.253  0.00  0.00     0.178 C 
ATOM     19  O   UNL d   1     -34.158  22.388  20.941  0.00  0.00    -0.646 OA
BRANCH  18  20
ATOM     20  O   UNL d   1     -32.037  22.093  20.349  0.00  0.00    -0.773 OA
ATOM     21  H   UNL d   1     -31.237  21.588  20.550  0.00  0.00     0.167 HD
ENDBRANCH  18  20
ENDBRANCH  10  18
ENDBRANCH   1   7
BRANCH   4  22
ATOM     22  C   UNL d   1     -23.855  23.421  22.917  0.00  0.00    -0.026 A 
ATOM     23  C   UNL d   1     -23.468  24.202  21.829  0.00  0.00     0.015 A 
ATOM     24  C   UNL d   1     -22.146  24.562  21.676  0.00  0.00     0.037 A 
ATOM     25  C   UNL d   1     -21.198  24.139  22.597  0.00  0.00     0.069 A 
ATOM     26  C   UNL d   1     -21.580  23.359  23.681  0.00  0.00     0.037 A 
ATOM     27  C   UNL d   1     -22.900  23.001  23.844  0.00  0.00     0.015 A 
BRANCH  25  28
ATOM     28  O   UNL d   1     -19.895  24.491  22.441  0.00  0.00    -0.347 OA
BRANCH  28  29
ATOM     29  C   UNL d   1     -19.552  25.849  22.725  0.00  0.00     0.214 C 
BRANCH  29  30
ATOM     30  C   UNL d   1     -19.998  26.199  24.121  0.00  0.00    -0.034 A 
ATOM     31  C   UNL d   1     -19.204  25.869  25.204  0.00  0.00     0.009 A 
ATOM     32  C   UNL d   1     -19.610  26.195  26.484  0.00  0.00     0.001 A 
ATOM     33  C   UNL d   1     -20.811  26.851  26.682  0.00  0.00     0.000 A 
ATOM     34  C   UNL d   1     -21.605  27.180  25.600  0.00  0.00     0.001 A 
ATOM     35  C   UNL d   1     -21.199  26.854  24.319  0.00  0.00     0.009 A 
ENDBRANCH  29  30
ENDBRANCH  28  29
ENDBRANCH  25  28
ENDBRANCH   4  22
TORSDOF 7
ENDMDL
