MODEL 1
REMARK VINA RESULT:      -9.7      0.000      0.000
REMARK  13 active torsions:
REMARK  status: ('A' for Active; 'I' for Inactive)
REMARK    1  A    between atoms: C_2  and  C_16 
REMARK    2  A    between atoms: C_3  and  C_4 
REMARK    3  A    between atoms: C_4  and  C_5 
REMARK    4  A    between atoms: C_6  and  O_7 
REMARK    5  A    between atoms: C_11  and  C_12 
REMARK    6  A    between atoms: C_14  and  O_15 
REMARK    7  A    between atoms: C_16  and  C_17 
REMARK    8  A    between atoms: C_17  and  C_18 
REMARK    9  A    between atoms: C_19  and  C_21 
REMARK   10  A    between atoms: C_21  and  C_22 
REMARK   11  A    between atoms: C_22  and  C_23 
REMARK   12  A    between atoms: C_23  and  C_25 
REMARK   13  A    between atoms: C_25  and  O_28 
ROOT
ATOM      1  C   UNL d   1     -24.201  22.933  19.316  0.00  0.00     0.043 C 
ATOM      2  C   UNL d   1     -24.179  22.562  20.777  0.00  0.00    -0.087 C 
ATOM      3  C   UNL d   1     -23.598  23.354  21.645  0.00  0.00    -0.020 C 
ENDROOT
BRANCH   2   4
ATOM      4  C   UNL d   1     -24.824  21.281  21.239  0.00  0.00     0.037 C 
BRANCH   4   5
ATOM      5  C   UNL d   1     -25.906  21.599  22.272  0.00  0.00     0.031 C 
BRANCH   5   6
ATOM      6  C   UNL d   1     -27.249  21.660  21.590  0.00  0.00    -0.024 C 
ATOM      7  C   UNL d   1     -28.268  22.215  22.198  0.00  0.00    -0.087 C 
ATOM      8  C   UNL d   1     -28.127  22.694  23.620  0.00  0.00     0.043 C 
BRANCH   7   9
ATOM      9  C   UNL d   1     -29.580  22.375  21.476  0.00  0.00     0.041 C 
BRANCH   9  10
ATOM     10  C   UNL d   1     -30.721  22.417  22.495  0.00  0.00     0.086 C 
BRANCH  10  11
ATOM     11  C   UNL d   1     -32.014  22.040  21.817  0.00  0.00     0.160 C 
ATOM     12  O   UNL d   1     -32.081  22.023  20.611  0.00  0.00    -0.295 OA
BRANCH  11  13
ATOM     13  C   UNL d   1     -33.222  21.685  22.644  0.00  0.00     0.111 C 
ATOM     14  C   UNL d   1     -33.952  20.504  22.000  0.00  0.00     0.053 C 
ATOM     15  C   UNL d   1     -32.778  21.301  24.057  0.00  0.00     0.053 C 
BRANCH  13  16
ATOM     16  O   UNL d   1     -34.101  22.810  22.711  0.00  0.00    -0.383 OA
ATOM     17  H   UNL d   1     -34.052  23.393  21.942  0.00  0.00     0.211 HD
ENDBRANCH  13  16
ENDBRANCH  11  13
ENDBRANCH  10  11
ENDBRANCH   9  10
ENDBRANCH   7   9
ENDBRANCH   5   6
ENDBRANCH   4   5
ENDBRANCH   2   4
BRANCH   3  18
ATOM     18  C   UNL d   1     -23.057  24.689  21.202  0.00  0.00     0.072 C 
BRANCH  18  19
ATOM     19  C   UNL d   1     -22.417  25.385  22.375  0.00  0.00     0.013 A 
ATOM     20  C   UNL d   1     -21.052  25.286  22.578  0.00  0.00     0.088 A 
ATOM     21  C   UNL d   1     -20.463  25.944  23.674  0.00  0.00     0.041 A 
ATOM     22  C   UNL d   1     -21.266  26.682  24.553  0.00  0.00    -0.043 A 
ATOM     23  C   UNL d   1     -22.611  26.765  24.344  0.00  0.00     0.044 A 
ATOM     24  C   UNL d   1     -20.643  27.384  25.732  0.00  0.00     0.049 C 
ATOM     25  C   UNL d   1     -23.197  26.119  23.258  0.00  0.00     0.075 A 
BRANCH  20  26
ATOM     26  O   UNL d   1     -20.286  24.564  21.723  0.00  0.00    -0.359 OA
ATOM     27  H   UNL d   1     -20.695  23.739  21.429  0.00  0.00     0.217 HD
ENDBRANCH  20  26
BRANCH  21  28
ATOM     28  C   UNL d   1     -19.017  25.854  23.895  0.00  0.00     0.273 C 
ATOM     29  O   UNL d   1     -18.502  24.775  24.105  0.00  0.00    -0.301 OA
ENDBRANCH  21  28
BRANCH  25  30
ATOM     30  O   UNL d   1     -24.536  26.209  23.061  0.00  0.00    -0.360 OA
ATOM     31  H   UNL d   1     -24.926  25.433  22.637  0.00  0.00     0.217 HD
ENDBRANCH  25  30
ENDBRANCH  18  19
ENDBRANCH   3  18
TORSDOF 13
ENDMDL
