MODEL 1
REMARK VINA RESULT:     -10.3      0.000      0.000
REMARK  7 active torsions:
REMARK  status: ('A' for Active; 'I' for Inactive)
REMARK    1  A    between atoms: O_2  and  C_3 
REMARK    2  A    between atoms: C_9  and  N_10 
REMARK       I    between atoms: N_10  and  C_11 
REMARK    3  A    between atoms: C_11  and  C_13 
REMARK    4  A    between atoms: C_17  and  N_18 
REMARK    5  A    between atoms: C_29  and  O_30 
REMARK    6  A    between atoms: O_30  and  C_31 
REMARK    7  A    between atoms: C_31  and  C_33 
ROOT
ATOM      1  C   UNL d   1     -24.203  24.614  23.626  0.00  0.00     0.068 A 
ATOM      2  C   UNL d   1     -25.108  25.134  24.556  0.00  0.00     0.064 A 
ATOM      3  C   UNL d   1     -26.354  24.562  24.697  0.00  0.00     0.146 A 
ATOM      4  F   UNL d   1     -27.230  25.068  25.592  0.00  0.00    -0.204 F 
ATOM      5  C   UNL d   1     -26.714  23.466  23.914  0.00  0.00     0.104 A 
ATOM      6  C   UNL d   1     -25.821  22.944  22.988  0.00  0.00     0.073 A 
ATOM      7  C   UNL d   1     -24.567  23.511  22.840  0.00  0.00     0.087 A 
ENDROOT
BRANCH   1   8
ATOM      8  C   UNL d   1     -22.870  25.221  23.472  0.00  0.00     0.259 C 
ATOM      9  N   UNL d   1     -21.800  24.656  24.065  0.00  0.00    -0.320 N 
ATOM     10  H   UNL d   1     -21.892  23.806  24.524  0.00  0.00     0.169 HD
ATOM     11  O   UNL d   1     -22.734  26.232  22.810  0.00  0.00    -0.267 OA
BRANCH   9  12
ATOM     12  C   UNL d   1     -20.554  25.296  24.019  0.00  0.00     0.074 A 
ATOM     13  C   UNL d   1     -20.231  26.263  24.969  0.00  0.00     0.095 A 
ATOM     14  C   UNL d   1     -18.997  26.892  24.920  0.00  0.00     0.039 A 
ATOM     15  C   UNL d   1     -18.090  26.559  23.932  0.00  0.00     0.003 A 
ATOM     16  C   UNL d   1     -18.411  25.598  22.989  0.00  0.00     0.009 A 
ATOM     17  C   UNL d   1     -19.637  24.964  23.034  0.00  0.00    -0.032 A 
ATOM     18  C   UNL d   1     -19.979  23.913  22.008  0.00  0.00     0.050 C 
BRANCH  13  19
ATOM     19  O   UNL d   1     -21.125  26.590  25.941  0.00  0.00    -0.354 OA
ATOM     20  C   UNL d   1     -21.609  27.934  25.951  0.00  0.00     0.210 C 
ENDBRANCH  13  19
ENDBRANCH   9  12
ENDBRANCH   1   8
BRANCH   7  21
ATOM     21  O   UNL d   1     -23.694  23.001  21.934  0.00  0.00    -0.336 OA
BRANCH  21  22
ATOM     22  C   UNL d   1     -23.963  23.261  20.556  0.00  0.00     0.232 C 
ATOM     23  C   UNL d   1     -22.671  23.687  19.855  0.00  0.00     0.049 C 
BRANCH  22  24
ATOM     24  C   UNL d   1     -24.507  21.993  19.895  0.00  0.00     0.413 C 
ATOM     25  F   UNL d   1     -23.915  21.831  18.637  0.00  0.00    -0.168 F 
ATOM     26  F   UNL d   1     -24.211  20.885  20.696  0.00  0.00    -0.168 F 
ATOM     27  F   UNL d   1     -25.894  22.104  19.746  0.00  0.00    -0.168 F 
ENDBRANCH  22  24
ENDBRANCH  21  22
ENDBRANCH   7  21
BRANCH   5  28
ATOM     28  N   UNL d   1     -27.978  22.891  24.061  0.00  0.00    -0.178 N 
ATOM     29  C   UNL d   1     -28.388  22.107  25.085  0.00  0.00     0.351 A 
ATOM     30  N   UNL d   1     -29.670  21.794  24.857  0.00  0.00    -0.280 N 
ATOM     31  O   UNL d   1     -27.716  21.756  26.037  0.00  0.00    -0.244 OA
ATOM     32  C   UNL d   1     -30.050  22.353  23.651  0.00  0.00     0.155 A 
ATOM     33  C   UNL d   1     -30.586  21.010  25.696  0.00  0.00     0.161 C 
ATOM     34  N   UNL d   1     -29.056  23.013  23.170  0.00  0.00    -0.147 NA
ATOM     35  C   UNL d   1     -31.428  22.163  23.061  0.00  0.00     0.248 C 
ATOM     36  O   UNL d   1     -32.286  21.688  24.108  0.00  0.00    -0.382 OA
ATOM     37  C   UNL d   1     -31.763  20.562  24.818  0.00  0.00     0.188 C 
ENDBRANCH   5  28
TORSDOF 7
ENDMDL
