MODEL 1
REMARK VINA RESULT:     -12.1      0.000      0.000
REMARK  8 active torsions:
REMARK  status: ('A' for Active; 'I' for Inactive)
REMARK       I    between atoms: C_2  and  N_4 
REMARK    1  A    between atoms: N_4  and  C_5 
REMARK    2  A    between atoms: C_9  and  C_10 
REMARK    3  A    between atoms: C_10  and  O_11 
REMARK    4  A    between atoms: O_11  and  C_12 
REMARK    5  A    between atoms: C_15  and  C_16 
REMARK    6  A    between atoms: C_19  and  C_20 
REMARK    7  A    between atoms: C_23  and  C_24 
REMARK    8  A    between atoms: C_24  and  O_26 
ROOT
ATOM      1  C   UNL d   1     -25.275  23.028  23.090  0.00  0.00    -0.026 A 
ATOM      2  C   UNL d   1     -25.869  22.138  22.195  0.00  0.00     0.013 A 
ATOM      3  C   UNL d   1     -27.190  21.784  22.351  0.00  0.00     0.016 A 
ATOM      4  C   UNL d   1     -27.937  22.319  23.402  0.00  0.00     0.010 A 
ATOM      5  C   UNL d   1     -27.343  23.214  24.295  0.00  0.00     0.016 A 
ATOM      6  C   UNL d   1     -26.022  23.568  24.137  0.00  0.00     0.013 A 
ENDROOT
BRANCH   1   7
ATOM      7  C   UNL d   1     -23.850  23.404  22.925  0.00  0.00    -0.026 A 
ATOM      8  C   UNL d   1     -23.453  24.169  21.828  0.00  0.00     0.015 A 
ATOM      9  C   UNL d   1     -22.127  24.517  21.676  0.00  0.00     0.037 A 
ATOM     10  C   UNL d   1     -21.189  24.109  22.616  0.00  0.00     0.069 A 
ATOM     11  C   UNL d   1     -21.583  23.349  23.709  0.00  0.00     0.037 A 
ATOM     12  C   UNL d   1     -22.907  23.001  23.868  0.00  0.00     0.015 A 
BRANCH  10  13
ATOM     13  O   UNL d   1     -19.884  24.455  22.465  0.00  0.00    -0.347 OA
BRANCH  13  14
ATOM     14  C   UNL d   1     -19.543  25.822  22.706  0.00  0.00     0.214 C 
BRANCH  14  15
ATOM     15  C   UNL d   1     -20.057  26.236  24.060  0.00  0.00    -0.032 A 
ATOM     16  C   UNL d   1     -21.298  26.836  24.174  0.00  0.00     0.009 A 
ATOM     17  C   UNL d   1     -21.776  27.213  25.416  0.00  0.00     0.003 A 
ATOM     18  C   UNL d   1     -21.010  27.002  26.545  0.00  0.00     0.029 A 
ATOM     19  C   UNL d   1     -19.761  26.405  26.434  0.00  0.00     0.035 A 
ATOM     20  C   UNL d   1     -19.286  26.023  25.186  0.00  0.00     0.038 A 
BRANCH  19  21
ATOM     21  N   UNL d   1     -18.983  26.190  27.576  0.00  0.00    -0.328 N 
ATOM     22  C   UNL d   1     -18.052  27.095  27.938  0.00  0.00     0.218 C 
ATOM     23  C   UNL d   1     -17.142  26.815  29.107  0.00  0.00     0.117 C 
ATOM     24  O   UNL d   1     -17.945  28.134  27.322  0.00  0.00    -0.274 OA
ATOM     25  H   UNL d   1     -19.114  25.390  28.109  0.00  0.00     0.169 HD
ENDBRANCH  19  21
ENDBRANCH  14  15
ENDBRANCH  13  14
ENDBRANCH  10  13
ENDBRANCH   1   7
BRANCH   4  26
ATOM     26  C   UNL d   1     -29.354  21.938  23.571  0.00  0.00     0.139 A 
ATOM     27  N   UNL d   1     -29.891  21.377  24.697  0.00  0.00    -0.338 N 
ATOM     28  C   UNL d   1     -31.236  21.180  24.450  0.00  0.00     0.064 A 
ATOM     29  H   UNL d   1     -29.416  21.161  25.515  0.00  0.00     0.167 HD
ATOM     30  C   UNL d   1     -31.463  21.637  23.140  0.00  0.00     0.102 A 
ATOM     31  C   UNL d   1     -32.283  20.659  25.195  0.00  0.00     0.038 A 
ATOM     32  N   UNL d   1     -30.289  22.083  22.660  0.00  0.00    -0.227 NA
ATOM     33  C   UNL d   1     -32.765  21.558  22.596  0.00  0.00     0.069 A 
ATOM     34  C   UNL d   1     -33.799  21.029  23.368  0.00  0.00     0.027 A 
ATOM     35  C   UNL d   1     -33.553  20.586  24.654  0.00  0.00    -0.059 A 
ATOM     36  C   UNL d   1     -34.681  20.017  25.475  0.00  0.00     0.048 C 
BRANCH  33  37
ATOM     37  C   UNL d   1     -33.028  22.030  21.227  0.00  0.00     0.178 C 
ATOM     38  O   UNL d   1     -34.155  22.346  20.900  0.00  0.00    -0.646 OA
BRANCH  37  39
ATOM     39  O   UNL d   1     -32.019  22.110  20.337  0.00  0.00    -0.773 OA
ATOM     40  H   UNL d   1     -31.676  21.275  19.987  0.00  0.00     0.167 HD
ENDBRANCH  37  39
ENDBRANCH  33  37
ENDBRANCH   4  26
TORSDOF 8
ENDMDL
