MODEL 1
REMARK VINA RESULT:     -10.5      0.000      0.000
REMARK  7 active torsions:
REMARK  status: ('A' for Active; 'I' for Inactive)
REMARK    1  A    between atoms: C_2  and  O_3 
REMARK    2  A    between atoms: O_3  and  C_4 
REMARK    3  A    between atoms: C_8  and  C_9 
REMARK    4  A    between atoms: C_12  and  N_13 
REMARK    5  A    between atoms: N_13  and  C_14 
REMARK    6  A    between atoms: C_19  and  C_20 
REMARK    7  A    between atoms: C_20  and  O_22 
ROOT
ATOM      1  C   UNL d   1     -26.316  23.371  23.976  0.00  0.00    -0.023 A 
ATOM      2  C   UNL d   1     -27.042  22.605  23.066  0.00  0.00     0.014 A 
ATOM      3  C   UNL d   1     -28.105  21.842  23.500  0.00  0.00     0.033 A 
ATOM      4  C   UNL d   1     -28.455  21.836  24.845  0.00  0.00     0.071 A 
ATOM      5  C   UNL d   1     -27.736  22.606  25.756  0.00  0.00     0.143 A 
ATOM      6  F   UNL d   1     -28.080  22.603  27.062  0.00  0.00    -0.204 F 
ATOM      7  C   UNL d   1     -26.667  23.366  25.326  0.00  0.00     0.057 A 
ENDROOT
BRANCH   4   8
ATOM      8  N   UNL d   1     -29.534  21.064  25.282  0.00  0.00    -0.352 N 
ATOM      9  H   UNL d   1     -29.409  20.416  25.994  0.00  0.00     0.166 HD
BRANCH   8  10
ATOM     10  C   UNL d   1     -30.784  21.222  24.699  0.00  0.00     0.067 A 
ATOM     11  C   UNL d   1     -31.838  20.349  25.017  0.00  0.00     0.067 A 
ATOM     12  C   UNL d   1     -33.078  20.561  24.403  0.00  0.00     0.040 A 
ATOM     13  C   UNL d   1     -33.214  21.605  23.511  0.00  0.00     0.117 A 
ATOM     14  N   UNL d   1     -32.199  22.401  23.234  0.00  0.00    -0.271 NA
ATOM     15  C   UNL d   1     -31.014  22.246  23.784  0.00  0.00     0.146 A 
BRANCH  11  16
ATOM     16  C   UNL d   1     -31.647  19.244  25.978  0.00  0.00     0.178 C 
ATOM     17  O   UNL d   1     -32.035  18.127  25.704  0.00  0.00    -0.646 OA
BRANCH  16  18
ATOM     18  O   UNL d   1     -31.041  19.476  27.160  0.00  0.00    -0.773 OA
ATOM     19  H   UNL d   1     -31.000  20.393  27.460  0.00  0.00     0.167 HD
ENDBRANCH  16  18
ENDBRANCH  11  16
ENDBRANCH   8  10
ENDBRANCH   4   8
BRANCH   1  20
ATOM     20  C   UNL d   1     -25.173  24.193  23.510  0.00  0.00    -0.023 A 
ATOM     21  C   UNL d   1     -25.074  25.531  23.886  0.00  0.00     0.012 A 
ATOM     22  C   UNL d   1     -24.007  26.293  23.455  0.00  0.00     0.004 A 
ATOM     23  C   UNL d   1     -23.039  25.734  22.640  0.00  0.00     0.037 A 
ATOM     24  C   UNL d   1     -23.132  24.403  22.256  0.00  0.00     0.069 A 
ATOM     25  C   UNL d   1     -24.197  23.631  22.689  0.00  0.00     0.049 A 
BRANCH  24  26
ATOM     26  O   UNL d   1     -22.179  23.859  21.456  0.00  0.00    -0.351 OA
BRANCH  26  27
ATOM     27  C   UNL d   1     -21.046  24.675  21.148  0.00  0.00     0.171 C 
ATOM     28  C   UNL d   1     -19.791  24.059  21.769  0.00  0.00     0.034 C 
ENDBRANCH  26  27
ENDBRANCH  24  26
ENDBRANCH   1  20
TORSDOF 7
ENDMDL
