MODEL 1
REMARK VINA RESULT:     -10.0      0.000      0.000
REMARK  10 active torsions:
REMARK  status: ('A' for Active; 'I' for Inactive)
REMARK    1  A    between atoms: C_2  and  C_3 
REMARK    2  A    between atoms: C_3  and  N_4 
REMARK    3  A    between atoms: C_5  and  C_6 
REMARK    4  A    between atoms: C_6  and  O_8 
REMARK    5  A    between atoms: N_10  and  C_11 
REMARK    6  A    between atoms: C_13  and  O_14 
REMARK    7  A    between atoms: O_14  and  C_15 
REMARK    8  A    between atoms: C_15  and  C_17 
REMARK    9  A    between atoms: C_21  and  C_22 
REMARK       I    between atoms: C_22  and  N_24 
REMARK   10  A    between atoms: N_24  and  C_25 
ROOT
ATOM      1  C   UNL d   1     -26.806  23.261  23.710  0.00  0.00     0.105 A 
ATOM      2  C   UNL d   1     -25.918  22.785  22.755  0.00  0.00     0.073 A 
ATOM      3  C   UNL d   1     -24.670  23.366  22.618  0.00  0.00     0.087 A 
ATOM      4  C   UNL d   1     -24.300  24.430  23.455  0.00  0.00     0.068 A 
ATOM      5  C   UNL d   1     -25.199  24.900  24.417  0.00  0.00     0.064 A 
ATOM      6  C   UNL d   1     -26.441  24.318  24.542  0.00  0.00     0.146 A 
ATOM      7  F   UNL d   1     -27.308  24.773  25.473  0.00  0.00    -0.204 F 
ENDROOT
BRANCH   1   8
ATOM      8  N   UNL d   1     -28.067  22.675  23.840  0.00  0.00    -0.177 N 
ATOM      9  N   UNL d   1     -28.569  22.035  24.982  0.00  0.00    -0.137 NA
ATOM     10  C   UNL d   1     -29.778  21.621  24.715  0.00  0.00     0.228 A 
ATOM     11  N   UNL d   1     -30.083  21.972  23.410  0.00  0.00    -0.275 N 
ATOM     12  C   UNL d   1     -29.024  22.624  22.891  0.00  0.00     0.351 A 
ATOM     13  O   UNL d   1     -28.943  23.079  21.764  0.00  0.00    -0.244 OA
BRANCH  10  14
ATOM     14  C   UNL d   1     -30.664  20.896  25.641  0.00  0.00     0.215 C 
ATOM     15  O   UNL d   1     -31.313  21.508  26.467  0.00  0.00    -0.644 OA
BRANCH  14  16
ATOM     16  O   UNL d   1     -30.754  19.553  25.575  0.00  0.00    -0.770 OA
ATOM     17  H   UNL d   1     -29.924  19.060  25.508  0.00  0.00     0.168 HD
ENDBRANCH  14  16
ENDBRANCH  10  14
BRANCH  11  18
ATOM     18  C   UNL d   1     -31.342  21.689  22.716  0.00  0.00     0.135 C 
BRANCH  18  19
ATOM     19  C   UNL d   1     -32.482  22.449  23.395  0.00  0.00     0.016 C 
ATOM     20  C   UNL d   1     -33.715  21.548  23.485  0.00  0.00     0.006 C 
ENDBRANCH  18  19
ENDBRANCH  11  18
ENDBRANCH   1   8
BRANCH   3  21
ATOM     21  O   UNL d   1     -23.803  22.904  21.681  0.00  0.00    -0.336 OA
BRANCH  21  22
ATOM     22  C   UNL d   1     -23.935  23.429  20.359  0.00  0.00     0.232 C 
ATOM     23  C   UNL d   1     -22.564  23.874  19.848  0.00  0.00     0.049 C 
BRANCH  22  24
ATOM     24  C   UNL d   1     -24.499  22.348  19.435  0.00  0.00     0.413 C 
ATOM     25  F   UNL d   1     -25.773  21.975  19.876  0.00  0.00    -0.168 F 
ATOM     26  F   UNL d   1     -24.583  22.847  18.131  0.00  0.00    -0.168 F 
ATOM     27  F   UNL d   1     -23.654  21.232  19.454  0.00  0.00    -0.168 F 
ENDBRANCH  22  24
ENDBRANCH  21  22
ENDBRANCH   3  21
BRANCH   4  28
ATOM     28  C   UNL d   1     -22.970  25.050  23.318  0.00  0.00     0.259 C 
ATOM     29  O   UNL d   1     -22.827  26.035  22.620  0.00  0.00    -0.267 OA
ATOM     30  N   UNL d   1     -21.913  24.524  23.967  0.00  0.00    -0.319 N 
ATOM     31  H   UNL d   1     -22.039  23.788  24.587  0.00  0.00     0.169 HD
BRANCH  30  32
ATOM     32  C   UNL d   1     -20.629  25.039  23.745  0.00  0.00     0.096 A 
ATOM     33  C   UNL d   1     -20.147  26.071  24.539  0.00  0.00     0.064 A 
ATOM     34  C   UNL d   1     -18.877  26.574  24.320  0.00  0.00     0.026 A 
ATOM     35 CL   UNL d   1     -21.133  26.727  25.808  0.00  0.00    -0.082 Cl
ATOM     36  C   UNL d   1     -18.091  26.057  23.306  0.00  0.00     0.005 A 
ATOM     37  C   UNL d   1     -18.571  25.032  22.510  0.00  0.00     0.045 A 
ATOM     38  C   UNL d   1     -19.838  24.521  22.725  0.00  0.00     0.144 A 
ATOM     39  F   UNL d   1     -20.305  23.520  21.947  0.00  0.00    -0.204 F 
ENDBRANCH  30  32
ENDBRANCH   4  28
TORSDOF 10
ENDMDL
