MODEL 1
REMARK VINA RESULT:     -11.1      0.000      0.000
REMARK  6 active torsions:
REMARK  status: ('A' for Active; 'I' for Inactive)
REMARK    1  A    between atoms: C_2  and  O_3 
REMARK    2  A    between atoms: C_2  and  C_34 
REMARK    3  A    between atoms: O_3  and  C_4 
REMARK    4  A    between atoms: C_6  and  N_7 
REMARK    5  A    between atoms: C_20  and  C_21 
REMARK       I    between atoms: C_21  and  N_23 
REMARK    6  A    between atoms: N_23  and  C_24 
ROOT
ATOM      1  C   UNL d   1     -24.714  23.351  22.658  0.00  0.00     0.087 A 
ATOM      2  C   UNL d   1     -25.975  22.806  22.828  0.00  0.00     0.073 A 
ATOM      3  C   UNL d   1     -26.835  23.328  23.784  0.00  0.00     0.104 A 
ATOM      4  C   UNL d   1     -26.431  24.395  24.586  0.00  0.00     0.146 A 
ATOM      5  F   UNL d   1     -27.271  24.895  25.518  0.00  0.00    -0.204 F 
ATOM      6  C   UNL d   1     -25.176  24.942  24.429  0.00  0.00     0.064 A 
ATOM      7  C   UNL d   1     -24.305  24.426  23.464  0.00  0.00     0.068 A 
ENDROOT
BRANCH   7   8
ATOM      8  C   UNL d   1     -22.963  25.007  23.293  0.00  0.00     0.259 C 
ATOM      9  O   UNL d   1     -22.825  26.050  22.681  0.00  0.00    -0.267 OA
ATOM     10  N   UNL d   1     -21.887  24.382  23.812  0.00  0.00    -0.323 N 
ATOM     11  H   UNL d   1     -22.003  23.584  24.350  0.00  0.00     0.169 HD
BRANCH  10  12
ATOM     12  C   UNL d   1     -20.606  24.886  23.576  0.00  0.00     0.037 A 
ATOM     13  C   UNL d   1     -20.061  25.798  24.452  0.00  0.00     0.062 A 
ATOM     14  C   UNL d   1     -18.770  26.300  24.218  0.00  0.00     0.069 A 
ATOM     15  C   UNL d   1     -18.057  25.862  23.073  0.00  0.00    -0.007 A 
ATOM     16  N   UNL d   1     -18.212  27.182  25.053  0.00  0.00    -0.260 NA
ATOM     17  C   UNL d   1     -18.643  24.934  22.196  0.00  0.00     0.016 A 
ATOM     18  C   UNL d   1     -16.766  26.372  22.840  0.00  0.00     0.015 A 
ATOM     19  C   UNL d   1     -19.892  24.460  22.449  0.00  0.00     0.030 A 
ATOM     20  C   UNL d   1     -16.256  27.271  23.732  0.00  0.00     0.020 A 
ATOM     21  C   UNL d   1     -17.010  27.659  24.837  0.00  0.00     0.117 A 
ENDBRANCH  10  12
ENDBRANCH   7   8
BRANCH   1  22
ATOM     22  O   UNL d   1     -23.875  22.847  21.720  0.00  0.00    -0.336 OA
BRANCH  22  23
ATOM     23  C   UNL d   1     -23.963  23.401  20.405  0.00  0.00     0.232 C 
ATOM     24  C   UNL d   1     -22.572  23.832  19.940  0.00  0.00     0.049 C 
BRANCH  23  25
ATOM     25  C   UNL d   1     -24.520  22.347  19.444  0.00  0.00     0.413 C 
ATOM     26  F   UNL d   1     -24.584  22.881  18.152  0.00  0.00    -0.168 F 
ATOM     27  F   UNL d   1     -23.680  21.228  19.445  0.00  0.00    -0.168 F 
ATOM     28  F   UNL d   1     -25.802  21.969  19.857  0.00  0.00    -0.168 F 
ENDBRANCH  23  25
ENDBRANCH  22  23
ENDBRANCH   1  22
BRANCH   3  29
ATOM     29  N   UNL d   1     -28.109  22.779  23.949  0.00  0.00    -0.178 N 
ATOM     30  C   UNL d   1     -28.520  22.004  24.977  0.00  0.00     0.351 A 
ATOM     31  N   UNL d   1     -29.814  21.713  24.767  0.00  0.00    -0.284 N 
ATOM     32  O   UNL d   1     -27.842  21.637  25.919  0.00  0.00    -0.244 OA
ATOM     33  C   UNL d   1     -30.198  22.283  23.570  0.00  0.00     0.131 A 
ATOM     34  C   UNL d   1     -30.710  20.946  25.640  0.00  0.00     0.135 C 
ATOM     35  N   UNL d   1     -29.197  22.926  23.075  0.00  0.00    -0.149 NA
ATOM     36  C   UNL d   1     -31.581  22.139  22.979  0.00  0.00     0.081 C 
ATOM     37  C   UNL d   1     -32.532  21.690  24.096  0.00  0.00     0.009 C 
ATOM     38  C   UNL d   1     -31.919  20.485  24.818  0.00  0.00     0.021 C 
ENDBRANCH   3  29
TORSDOF 6
ENDMDL
