MODEL 1
REMARK VINA RESULT:     -12.9      0.000      0.000
REMARK  4 active torsions:
REMARK  status: ('A' for Active; 'I' for Inactive)
REMARK    1  A    between atoms: C_4  and  C_5 
REMARK    2  A    between atoms: C_5  and  O_7 
REMARK    3  A    between atoms: C_11  and  C_12 
REMARK    4  A    between atoms: C_17  and  C_18 
ROOT
ATOM      1  C   UNL d   1     -26.888  22.685  22.947  0.00  0.00     0.093 A 
ATOM      2  C   UNL d   1     -26.270  23.740  23.625  0.00  0.00     0.173 A 
ATOM      3  F   UNL d   1     -26.955  24.438  24.557  0.00  0.00    -0.202 F 
ATOM      4  C   UNL d   1     -24.958  24.069  23.343  0.00  0.00     0.170 A 
ATOM      5  F   UNL d   1     -24.362  25.089  23.997  0.00  0.00    -0.202 F 
ATOM      6  C   UNL d   1     -24.249  23.348  22.380  0.00  0.00     0.058 A 
ATOM      7  C   UNL d   1     -24.867  22.298  21.698  0.00  0.00     0.170 A 
ATOM      8  F   UNL d   1     -24.181  21.605  20.762  0.00  0.00    -0.202 F 
ATOM      9  C   UNL d   1     -26.177  21.963  21.983  0.00  0.00     0.173 A 
ATOM     10  F   UNL d   1     -26.772  20.943  21.326  0.00  0.00    -0.202 F 
ENDROOT
BRANCH   1  11
ATOM     11  C   UNL d   1     -28.290  22.332  23.248  0.00  0.00     0.145 A 
ATOM     12  N   UNL d   1     -28.725  21.749  24.410  0.00  0.00    -0.337 N 
ATOM     13  C   UNL d   1     -30.087  21.585  24.299  0.00  0.00     0.080 A 
ATOM     14  H   UNL d   1     -28.175  21.499  25.169  0.00  0.00     0.167 HD
ATOM     15  C   UNL d   1     -31.073  21.056  25.143  0.00  0.00     0.067 A 
ATOM     16  C   UNL d   1     -30.444  22.088  23.036  0.00  0.00     0.087 A 
ATOM     17  C   UNL d   1     -32.402  21.037  24.718  0.00  0.00     0.027 A 
ATOM     18  C   UNL d   1     -32.744  21.533  23.474  0.00  0.00    -0.059 A 
ATOM     19  C   UNL d   1     -34.184  21.504  23.031  0.00  0.00     0.048 C 
ATOM     20  C   UNL d   1     -31.783  22.055  22.635  0.00  0.00     0.040 A 
ATOM     21  N   UNL d   1     -29.307  22.533  22.446  0.00  0.00    -0.228 NA
BRANCH  15  22
ATOM     22  C   UNL d   1     -30.709  20.525  26.468  0.00  0.00     0.178 C 
ATOM     23  O   UNL d   1     -30.042  21.197  27.231  0.00  0.00    -0.646 OA
BRANCH  22  24
ATOM     24  O   UNL d   1     -31.117  19.294  26.836  0.00  0.00    -0.773 OA
ATOM     25  H   UNL d   1     -30.433  18.619  26.943  0.00  0.00     0.167 HD
ENDBRANCH  22  24
ENDBRANCH  15  22
ENDBRANCH   1  11
BRANCH   6  26
ATOM     26  C   UNL d   1     -22.843  23.702  22.077  0.00  0.00    -0.017 A 
ATOM     27  C   UNL d   1     -22.539  24.444  20.937  0.00  0.00     0.054 A 
ATOM     28  C   UNL d   1     -21.224  24.767  20.656  0.00  0.00     0.117 A 
ATOM     29  C   UNL d   1     -20.212  24.364  21.513  0.00  0.00     0.042 A 
ATOM     30  F   UNL d   1     -20.926  25.481  19.549  0.00  0.00    -0.206 F 
ATOM     31  C   UNL d   1     -20.511  23.628  22.645  0.00  0.00     0.004 A 
ATOM     32  C   UNL d   1     -21.819  23.296  22.931  0.00  0.00     0.012 A 
ENDBRANCH   6  26
TORSDOF 4
ENDMDL
