MODEL 1
REMARK VINA RESULT:     -10.5      0.000      0.000
REMARK  7 active torsions:
REMARK  status: ('A' for Active; 'I' for Inactive)
REMARK    1  A    between atoms: C_2  and  C_3 
REMARK    2  A    between atoms: C_3  and  C_4 
REMARK    3  A    between atoms: C_4  and  O_6 
REMARK    4  A    between atoms: O_6  and  C_7 
REMARK    5  A    between atoms: C_9  and  N_10 
REMARK    6  A    between atoms: C_23  and  C_24 
REMARK       I    between atoms: C_24  and  N_26 
REMARK    7  A    between atoms: N_26  and  C_27 
ROOT
ATOM      1  C   UNL d   1     -26.100  23.243  23.327  0.00  0.00     0.087 A 
ATOM      2  C   UNL d   1     -27.474  23.094  23.377  0.00  0.00     0.073 A 
ATOM      3  C   UNL d   1     -28.113  22.240  22.488  0.00  0.00     0.104 A 
ATOM      4  C   UNL d   1     -27.375  21.538  21.536  0.00  0.00     0.146 A 
ATOM      5  F   UNL d   1     -28.004  20.712  20.671  0.00  0.00    -0.204 F 
ATOM      6  C   UNL d   1     -26.007  21.684  21.474  0.00  0.00     0.064 A 
ATOM      7  C   UNL d   1     -25.355  22.539  22.370  0.00  0.00     0.068 A 
ENDROOT
BRANCH   7   8
ATOM      8  C   UNL d   1     -23.893  22.698  22.306  0.00  0.00     0.259 C 
ATOM      9  O   UNL d   1     -23.168  21.735  22.477  0.00  0.00    -0.267 OA
ATOM     10  N   UNL d   1     -23.355  23.909  22.059  0.00  0.00    -0.322 N 
ATOM     11  H   UNL d   1     -23.930  24.659  21.843  0.00  0.00     0.169 HD
BRANCH  10  12
ATOM     12  C   UNL d   1     -21.969  24.084  22.116  0.00  0.00     0.041 A 
ATOM     13  C   UNL d   1     -21.248  24.307  20.951  0.00  0.00    -0.035 A 
ATOM     14  C   UNL d   1     -19.879  24.479  21.009  0.00  0.00     0.009 A 
ATOM     15  C   UNL d   1     -21.959  24.361  19.623  0.00  0.00     0.050 C 
ATOM     16  C   UNL d   1     -19.226  24.431  22.227  0.00  0.00     0.001 A 
ATOM     17  C   UNL d   1     -19.942  24.208  23.390  0.00  0.00     0.002 A 
ATOM     18  C   UNL d   1     -21.311  24.040  23.339  0.00  0.00     0.030 A 
ENDBRANCH  10  12
ENDBRANCH   7   8
BRANCH   1  19
ATOM     19  O   UNL d   1     -25.473  24.074  24.199  0.00  0.00    -0.345 OA
BRANCH  19  20
ATOM     20  C   UNL d   1     -25.805  25.461  24.126  0.00  0.00     0.124 C 
ATOM     21  C   UNL d   1     -26.266  25.949  25.502  0.00  0.00     0.040 C 
BRANCH  20  22
ATOM     22  C   UNL d   1     -24.574  26.259  23.689  0.00  0.00     0.032 C 
BRANCH  22  23
ATOM     23  C   UNL d   1     -23.557  26.292  24.832  0.00  0.00    -0.002 C 
ATOM     24  C   UNL d   1     -22.367  27.167  24.431  0.00  0.00     0.005 C 
ENDBRANCH  22  23
ENDBRANCH  20  22
ENDBRANCH  19  20
ENDBRANCH   1  19
BRANCH   3  25
ATOM     25  N   UNL d   1     -29.500  22.088  22.545  0.00  0.00    -0.178 N 
ATOM     26  C   UNL d   1     -30.226  21.759  23.636  0.00  0.00     0.351 A 
ATOM     27  N   UNL d   1     -31.518  21.746  23.269  0.00  0.00    -0.284 N 
ATOM     28  O   UNL d   1     -29.790  21.518  24.746  0.00  0.00    -0.244 OA
ATOM     29  C   UNL d   1     -31.589  22.032  21.920  0.00  0.00     0.131 A 
ATOM     30  C   UNL d   1     -32.686  21.499  24.122  0.00  0.00     0.135 C 
ATOM     31  N   UNL d   1     -30.397  22.243  21.477  0.00  0.00    -0.149 NA
ATOM     32  C   UNL d   1     -32.881  22.070  21.137  0.00  0.00     0.081 C 
ATOM     33  C   UNL d   1     -34.038  22.199  22.137  0.00  0.00     0.009 C 
ATOM     34  C   UNL d   1     -33.877  21.135  23.228  0.00  0.00     0.021 C 
ENDBRANCH   3  25
TORSDOF 7
ENDMDL
