MODEL 1
REMARK VINA RESULT:     -10.8      0.000      0.000
REMARK  6 active torsions:
REMARK  status: ('A' for Active; 'I' for Inactive)
REMARK    1  A    between atoms: C_9  and  N_10 
REMARK       I    between atoms: N_10  and  C_11 
REMARK    2  A    between atoms: C_11  and  C_13 
REMARK    3  A    between atoms: C_17  and  N_18 
REMARK    4  A    between atoms: C_29  and  O_30 
REMARK    5  A    between atoms: O_30  and  C_31 
REMARK    6  A    between atoms: C_31  and  C_33 
ROOT
ATOM      1  C   UNL d   1     -24.184  24.663  23.633  0.00  0.00     0.068 A 
ATOM      2  C   UNL d   1     -25.088  25.159  24.580  0.00  0.00     0.064 A 
ATOM      3  C   UNL d   1     -26.327  24.576  24.720  0.00  0.00     0.146 A 
ATOM      4  F   UNL d   1     -27.200  25.059  25.630  0.00  0.00    -0.204 F 
ATOM      5  C   UNL d   1     -26.681  23.482  23.929  0.00  0.00     0.104 A 
ATOM      6  C   UNL d   1     -25.789  22.981  22.991  0.00  0.00     0.073 A 
ATOM      7  C   UNL d   1     -24.543  23.564  22.839  0.00  0.00     0.087 A 
ENDROOT
BRANCH   1   8
ATOM      8  C   UNL d   1     -22.861  25.287  23.477  0.00  0.00     0.259 C 
ATOM      9  N   UNL d   1     -21.810  24.828  24.185  0.00  0.00    -0.322 N 
ATOM     10  H   UNL d   1     -21.940  24.133  24.850  0.00  0.00     0.169 HD
ATOM     11  O   UNL d   1     -22.715  26.219  22.708  0.00  0.00    -0.267 OA
BRANCH   9  12
ATOM     12  C   UNL d   1     -20.532  25.352  23.961  0.00  0.00     0.047 A 
ATOM     13  C   UNL d   1     -19.747  24.857  22.928  0.00  0.00    -0.032 A 
ATOM     14  C   UNL d   1     -20.272  23.754  22.046  0.00  0.00     0.050 C 
ATOM     15  C   UNL d   1     -18.489  25.380  22.706  0.00  0.00     0.051 A 
ATOM     16  C   UNL d   1     -18.004  26.391  23.520  0.00  0.00     0.117 A 
ATOM     17  F   UNL d   1     -16.771  26.898  23.303  0.00  0.00    -0.206 F 
ATOM     18  C   UNL d   1     -18.782  26.882  24.554  0.00  0.00     0.051 A 
ATOM     19  C   UNL d   1     -20.044  26.366  24.776  0.00  0.00    -0.032 A 
ATOM     20  C   UNL d   1     -20.891  26.902  25.902  0.00  0.00     0.050 C 
ENDBRANCH   9  12
ENDBRANCH   1   8
BRANCH   7  21
ATOM     21  O   UNL d   1     -23.670  23.074  21.922  0.00  0.00    -0.336 OA
BRANCH  21  22
ATOM     22  C   UNL d   1     -23.999  23.269  20.545  0.00  0.00     0.232 C 
ATOM     23  C   UNL d   1     -22.761  23.750  19.788  0.00  0.00     0.049 C 
BRANCH  22  24
ATOM     24  C   UNL d   1     -24.482  21.946  19.944  0.00  0.00     0.413 C 
ATOM     25  F   UNL d   1     -25.862  22.011  19.723  0.00  0.00    -0.168 F 
ATOM     26  F   UNL d   1     -23.825  21.718  18.730  0.00  0.00    -0.168 F 
ATOM     27  F   UNL d   1     -24.200  20.901  20.831  0.00  0.00    -0.168 F 
ENDBRANCH  22  24
ENDBRANCH  21  22
ENDBRANCH   7  21
BRANCH   5  28
ATOM     28  N   UNL d   1     -27.938  22.892  24.079  0.00  0.00    -0.178 N 
ATOM     29  C   UNL d   1     -28.338  22.113  25.109  0.00  0.00     0.351 A 
ATOM     30  N   UNL d   1     -29.616  21.779  24.882  0.00  0.00    -0.280 N 
ATOM     31  O   UNL d   1     -27.664  21.780  26.066  0.00  0.00    -0.244 OA
ATOM     32  C   UNL d   1     -30.001  22.323  23.670  0.00  0.00     0.155 A 
ATOM     33  C   UNL d   1     -30.523  20.992  25.727  0.00  0.00     0.161 C 
ATOM     34  N   UNL d   1     -29.015  22.992  23.185  0.00  0.00    -0.147 NA
ATOM     35  C   UNL d   1     -31.375  22.110  23.079  0.00  0.00     0.248 C 
ATOM     36  O   UNL d   1     -32.229  21.633  24.130  0.00  0.00    -0.382 OA
ATOM     37  C   UNL d   1     -31.692  20.520  24.852  0.00  0.00     0.188 C 
ENDBRANCH   5  28
TORSDOF 6
ENDMDL
