MODEL 1
REMARK VINA RESULT:      -9.2      0.000      0.000
REMARK  6 active torsions:
REMARK  status: ('A' for Active; 'I' for Inactive)
REMARK    1  A    between atoms: C_2  and  O_3 
REMARK    2  A    between atoms: C_2  and  C_30 
REMARK    3  A    between atoms: O_3  and  C_4 
REMARK    4  A    between atoms: C_6  and  N_7 
REMARK    5  A    between atoms: C_20  and  C_21 
REMARK       I    between atoms: C_21  and  N_23 
REMARK    6  A    between atoms: N_23  and  C_24 
ROOT
ATOM      1  C   UNL d   1     -20.185  25.027  24.070  0.00  0.00     0.087 A 
ATOM      2  C   UNL d   1     -21.468  24.513  23.983  0.00  0.00     0.073 A 
ATOM      3  C   UNL d   1     -21.969  24.099  22.757  0.00  0.00     0.104 A 
ATOM      4  C   UNL d   1     -21.184  24.196  21.608  0.00  0.00     0.146 A 
ATOM      5  F   UNL d   1     -21.678  23.791  20.418  0.00  0.00    -0.204 F 
ATOM      6  C   UNL d   1     -19.908  24.706  21.684  0.00  0.00     0.064 A 
ATOM      7  C   UNL d   1     -19.396  25.132  22.915  0.00  0.00     0.068 A 
ENDROOT
BRANCH   3   8
ATOM      8  N   UNL d   1     -23.264  23.581  22.673  0.00  0.00    -0.178 N 
ATOM      9  C   UNL d   1     -24.366  24.081  23.270  0.00  0.00     0.351 A 
ATOM     10  N   UNL d   1     -25.404  23.306  22.913  0.00  0.00    -0.284 N 
ATOM     11  O   UNL d   1     -24.412  25.056  24.000  0.00  0.00    -0.244 OA
ATOM     12  C   UNL d   1     -24.929  22.289  22.111  0.00  0.00     0.131 A 
ATOM     13  C   UNL d   1     -26.816  23.486  23.266  0.00  0.00     0.135 C 
ATOM     14  N   UNL d   1     -23.660  22.447  21.946  0.00  0.00    -0.149 NA
ATOM     15  C   UNL d   1     -25.797  21.186  21.554  0.00  0.00     0.081 C 
ATOM     16  C   UNL d   1     -27.258  21.648  21.629  0.00  0.00     0.009 C 
ATOM     17  C   UNL d   1     -27.549  22.158  23.043  0.00  0.00     0.021 C 
ENDBRANCH   3   8
BRANCH   1  18
ATOM     18  O   UNL d   1     -19.696  25.433  25.268  0.00  0.00    -0.345 OA
BRANCH  18  19
ATOM     19  C   UNL d   1     -19.928  26.794  25.636  0.00  0.00     0.129 C 
ATOM     20  C   UNL d   1     -21.408  27.131  25.439  0.00  0.00     0.040 C 
BRANCH  19  21
ATOM     21  C   UNL d   1     -19.551  26.995  27.106  0.00  0.00     0.015 C 
ATOM     22  C   UNL d   1     -20.513  26.202  27.993  0.00  0.00     0.007 C 
ATOM     23  C   UNL d   1     -20.136  26.404  29.462  0.00  0.00     0.000 C 
ATOM     24  C   UNL d   1     -18.706  25.912  29.693  0.00  0.00     0.000 C 
ATOM     25  C   UNL d   1     -17.744  26.706  28.806  0.00  0.00     0.000 C 
ATOM     26  C   UNL d   1     -18.121  26.505  27.337  0.00  0.00     0.007 C 
ENDBRANCH  19  21
ENDBRANCH  18  19
ENDBRANCH   1  18
BRANCH   7  27
ATOM     27  C   UNL d   1     -18.033  25.682  22.999  0.00  0.00     0.254 C 
ATOM     28  O   UNL d   1     -17.089  25.033  22.594  0.00  0.00    -0.268 OA
ATOM     29  N   UNL d   1     -17.833  26.907  23.525  0.00  0.00    -0.352 N 
ATOM     30  H   UNL d   1     -18.586  27.426  23.849  0.00  0.00     0.163 HD
BRANCH  29  31
ATOM     31  C   UNL d   1     -16.476  27.455  23.608  0.00  0.00     0.088 C 
ATOM     32  C   UNL d   1     -16.187  28.296  22.361  0.00  0.00     0.051 C 
ATOM     33  C   UNL d   1     -14.798  28.928  22.492  0.00  0.00     0.169 C 
ATOM     34  O   UNL d   1     -14.746  29.717  23.682  0.00  0.00    -0.391 OA
ATOM     35  C   UNL d   1     -14.962  28.975  24.884  0.00  0.00     0.169 C 
ATOM     36  C   UNL d   1     -16.357  28.345  24.849  0.00  0.00     0.051 C 
ENDBRANCH  29  31
ENDBRANCH   7  27
TORSDOF 6
ENDMDL
