MODEL 1
REMARK VINA RESULT:      -9.0      0.000      0.000
REMARK  6 active torsions:
REMARK  status: ('A' for Active; 'I' for Inactive)
REMARK    1  A    between atoms: C_2  and  N_3 
REMARK    2  A    between atoms: C_4  and  C_5 
REMARK    3  A    between atoms: C_5  and  O_6 
REMARK    4  A    between atoms: N_8  and  C_9 
REMARK    5  A    between atoms: C_12  and  C_13 
REMARK    6  A    between atoms: N_17  and  C_18 
ROOT
ATOM      1  C   UNL d   1     -28.924  22.088  22.310  0.00  0.00     0.103 A 
ATOM      2  C   UNL d   1     -28.201  22.948  23.119  0.00  0.00     0.048 A 
ATOM      3  C   UNL d   1     -26.850  23.161  22.854  0.00  0.00    -0.010 A 
ATOM      4  C   UNL d   1     -26.032  24.057  23.674  0.00  0.00    -0.027 A 
ATOM      5  C   UNL d   1     -24.734  24.222  23.377  0.00  0.00     0.109 A 
ATOM      6  N   UNL d   1     -24.138  23.587  22.322  0.00  0.00    -0.285 N 
ATOM      7  C   UNL d   1     -24.813  22.745  21.515  0.00  0.00     0.263 A 
ATOM      8  O   UNL d   1     -24.246  22.195  20.587  0.00  0.00    -0.267 OA
ATOM      9  C   UNL d   1     -26.235  22.498  21.764  0.00  0.00     0.046 A 
ATOM     10  C   UNL d   1     -26.986  21.636  20.963  0.00  0.00     0.062 A 
ATOM     11  C   UNL d   1     -28.310  21.437  21.236  0.00  0.00     0.146 A 
ATOM     12  F   UNL d   1     -29.033  20.602  20.459  0.00  0.00    -0.204 F 
ENDROOT
BRANCH   1  13
ATOM     13  N   UNL d   1     -30.280  21.868  22.569  0.00  0.00    -0.178 N 
ATOM     14  N   UNL d   1     -30.837  21.456  23.788  0.00  0.00    -0.147 NA
ATOM     15  C   UNL d   1     -32.118  21.364  23.635  0.00  0.00     0.154 A 
ATOM     16  N   UNL d   1     -32.437  21.704  22.343  0.00  0.00    -0.283 N 
ATOM     17  C   UNL d   1     -31.297  22.020  21.695  0.00  0.00     0.351 A 
ATOM     18  O   UNL d   1     -31.202  22.374  20.534  0.00  0.00    -0.244 OA
BRANCH  15  19
ATOM     19  C   UNL d   1     -33.101  20.948  24.700  0.00  0.00     0.244 C 
BRANCH  19  20
ATOM     20  O   UNL d   1     -32.439  20.894  25.964  0.00  0.00    -0.393 OA
ATOM     21  H   UNL d   1     -31.685  20.290  25.988  0.00  0.00     0.209 HD
ENDBRANCH  19  20
ENDBRANCH  15  19
BRANCH  16  22
ATOM     22  C   UNL d   1     -33.784  21.728  21.769  0.00  0.00     0.131 C 
ATOM     23  C   UNL d   1     -34.156  20.325  21.284  0.00  0.00     0.027 C 
ENDBRANCH  16  22
ENDBRANCH   1  13
BRANCH   4  24
ATOM     24  C   UNL d   1     -26.643  24.785  24.844  0.00  0.00     0.013 C 
ATOM     25  C   UNL d   1     -26.735  23.838  26.043  0.00  0.00     0.015 C 
ATOM     26  C   UNL d   1     -25.770  25.987  25.209  0.00  0.00     0.015 C 
ENDBRANCH   4  24
BRANCH   6  27
ATOM     27  C   UNL d   1     -22.778  23.817  22.076  0.00  0.00     0.081 A 
ATOM     28  C   UNL d   1     -21.821  23.362  22.976  0.00  0.00     0.143 A 
ATOM     29  C   UNL d   1     -20.479  23.585  22.726  0.00  0.00     0.045 A 
ATOM     30  F   UNL d   1     -22.200  22.699  24.091  0.00  0.00    -0.204 F 
ATOM     31  C   UNL d   1     -20.091  24.263  21.584  0.00  0.00     0.010 A 
ATOM     32  C   UNL d   1     -21.041  24.720  20.690  0.00  0.00    -0.060 A 
ATOM     33  C   UNL d   1     -22.383  24.501  20.935  0.00  0.00     0.040 A 
ATOM     34  C   UNL d   1     -20.614  25.458  19.448  0.00  0.00     0.048 C 
ENDBRANCH   6  27
TORSDOF 6
ENDMDL
