MODEL 1
REMARK VINA RESULT:      -9.6      0.000      0.000
REMARK  9 active torsions:
REMARK  status: ('A' for Active; 'I' for Inactive)
REMARK    1  A    between atoms: C_2  and  C_17 
REMARK    2  A    between atoms: C_3  and  C_4 
REMARK    3  A    between atoms: C_4  and  C_5 
REMARK    4  A    between atoms: C_6  and  O_7 
REMARK    5  A    between atoms: C_12  and  C_13 
REMARK    6  A    between atoms: C_15  and  O_16 
REMARK    7  A    between atoms: C_17  and  O_18 
REMARK    8  A    between atoms: C_17  and  C_19 
REMARK    9  A    between atoms: C_19  and  C_20 
ROOT
ATOM      1  C   UNL d   1     -24.507  22.825  21.965  0.00  0.00     0.046 C 
ATOM      2  C   UNL d   1     -25.102  23.542  23.150  0.00  0.00    -0.059 C 
ATOM      3  C   UNL d   1     -26.115  23.016  23.793  0.00  0.00    -0.017 C 
ENDROOT
BRANCH   2   4
ATOM      4  C   UNL d   1     -24.531  24.863  23.595  0.00  0.00     0.147 C 
BRANCH   4   5
ATOM      5  O   UNL d   1     -25.588  25.813  23.746  0.00  0.00    -0.391 OA
ATOM      6  H   UNL d   1     -26.311  25.510  24.311  0.00  0.00     0.210 HD
ENDBRANCH   4   5
BRANCH   4   7
ATOM      7  C   UNL d   1     -23.536  25.368  22.549  0.00  0.00     0.046 C 
BRANCH   7   8
ATOM      8  C   UNL d   1     -22.114  25.258  23.101  0.00  0.00    -0.028 C 
ATOM      9  C   UNL d   1     -21.759  26.539  23.862  0.00  0.00     0.060 C 
ATOM     10  C   UNL d   1     -20.309  26.463  24.282  0.00  0.00     0.131 C 
ATOM     11  C   UNL d   1     -22.648  26.663  25.101  0.00  0.00     0.018 C 
ATOM     12  C   UNL d   1     -19.272  26.131  23.232  0.00  0.00     0.079 C 
ATOM     13  O   UNL d   1     -19.985  26.662  25.429  0.00  0.00    -0.298 OA
ATOM     14  C   UNL d   1     -19.717  24.864  22.493  0.00  0.00     0.012 C 
ATOM     15  C   UNL d   1     -21.130  25.065  21.944  0.00  0.00    -0.009 C 
ATOM     16  C   UNL d   1     -21.538  23.836  21.129  0.00  0.00     0.011 C 
ATOM     17  C   UNL d   1     -22.027  24.059  24.049  0.00  0.00     0.016 C 
ENDBRANCH   7   8
ENDBRANCH   4   7
ENDBRANCH   2   4
BRANCH   3  18
ATOM     18  C   UNL d   1     -26.720  21.721  23.314  0.00  0.00     0.072 C 
BRANCH  18  19
ATOM     19  C   UNL d   1     -28.222  21.852  23.281  0.00  0.00     0.014 A 
ATOM     20  C   UNL d   1     -28.947  21.802  24.460  0.00  0.00     0.088 A 
ATOM     21  C   UNL d   1     -30.348  21.926  24.420  0.00  0.00     0.043 A 
ATOM     22  C   UNL d   1     -30.994  22.096  23.188  0.00  0.00    -0.021 A 
ATOM     23  C   UNL d   1     -30.265  22.143  22.034  0.00  0.00     0.074 A 
ATOM     24  C   UNL d   1     -32.494  22.229  23.137  0.00  0.00     0.051 C 
ATOM     25  C   UNL d   1     -28.877  22.027  22.072  0.00  0.00     0.097 A 
ATOM     26 CL   UNL d   1     -31.073  22.355  20.512  0.00  0.00    -0.081 Cl
BRANCH  20  27
ATOM     27  O   UNL d   1     -28.310  21.638  25.646  0.00  0.00    -0.359 OA
ATOM     28  H   UNL d   1     -28.232  20.716  25.926  0.00  0.00     0.217 HD
ENDBRANCH  20  27
BRANCH  21  29
ATOM     29  C   UNL d   1     -31.127  21.876  25.659  0.00  0.00     0.273 C 
ATOM     30  O   UNL d   1     -30.856  21.057  26.513  0.00  0.00    -0.301 OA
ENDBRANCH  21  29
BRANCH  25  31
ATOM     31  O   UNL d   1     -28.164  22.079  20.919  0.00  0.00    -0.358 OA
ATOM     32  H   UNL d   1     -27.775  22.945  20.737  0.00  0.00     0.217 HD
ENDBRANCH  25  31
ENDBRANCH  18  19
ENDBRANCH   3  18
TORSDOF 9
ENDMDL
