MODEL 1
REMARK VINA RESULT:     -10.8      0.000      0.000
REMARK  6 active torsions:
REMARK  status: ('A' for Active; 'I' for Inactive)
REMARK    1  A    between atoms: C_2  and  O_3 
REMARK    2  A    between atoms: C_2  and  C_33 
REMARK    3  A    between atoms: O_3  and  C_4 
REMARK    4  A    between atoms: C_6  and  N_7 
REMARK    5  A    between atoms: C_20  and  C_21 
REMARK       I    between atoms: C_21  and  N_23 
REMARK    6  A    between atoms: N_23  and  C_24 
ROOT
ATOM      1  C   UNL d   1     -24.707  23.371  22.639  0.00  0.00     0.087 A 
ATOM      2  C   UNL d   1     -25.968  22.831  22.820  0.00  0.00     0.073 A 
ATOM      3  C   UNL d   1     -26.814  23.352  23.790  0.00  0.00     0.104 A 
ATOM      4  C   UNL d   1     -26.398  24.420  24.585  0.00  0.00     0.146 A 
ATOM      5  F   UNL d   1     -27.226  24.921  25.528  0.00  0.00    -0.204 F 
ATOM      6  C   UNL d   1     -25.144  24.963  24.413  0.00  0.00     0.064 A 
ATOM      7  C   UNL d   1     -24.286  24.444  23.437  0.00  0.00     0.068 A 
ENDROOT
BRANCH   7   8
ATOM      8  C   UNL d   1     -22.944  25.024  23.251  0.00  0.00     0.259 C 
ATOM      9  O   UNL d   1     -22.811  26.056  22.622  0.00  0.00    -0.267 OA
ATOM     10  N   UNL d   1     -21.865  24.409  23.775  0.00  0.00    -0.318 N 
ATOM     11  H   UNL d   1     -21.962  23.545  24.206  0.00  0.00     0.169 HD
BRANCH  10  12
ATOM     12  C   UNL d   1     -20.605  25.017  23.697  0.00  0.00     0.113 A 
ATOM     13  C   UNL d   1     -20.238  25.981  24.628  0.00  0.00     0.149 A 
ATOM     14  C   UNL d   1     -18.993  26.579  24.549  0.00  0.00     0.087 A 
ATOM     15  F   UNL d   1     -21.097  26.333  25.610  0.00  0.00    -0.203 F 
ATOM     16  C   UNL d   1     -18.113  26.220  23.543  0.00  0.00     0.122 A 
ATOM     17  C   UNL d   1     -18.477  25.259  22.613  0.00  0.00     0.087 A 
ATOM     18  F   UNL d   1     -16.898  26.805  23.468  0.00  0.00    -0.206 F 
ATOM     19  C   UNL d   1     -19.717  24.654  22.691  0.00  0.00     0.149 A 
ATOM     20  F   UNL d   1     -20.069  23.714  21.786  0.00  0.00    -0.203 F 
ENDBRANCH  10  12
ENDBRANCH   7   8
BRANCH   1  21
ATOM     21  O   UNL d   1     -23.877  22.859  21.695  0.00  0.00    -0.336 OA
BRANCH  21  22
ATOM     22  C   UNL d   1     -23.991  23.393  20.374  0.00  0.00     0.232 C 
ATOM     23  C   UNL d   1     -22.611  23.840  19.885  0.00  0.00     0.049 C 
BRANCH  22  24
ATOM     24  C   UNL d   1     -24.540  22.318  19.434  0.00  0.00     0.413 C 
ATOM     25  F   UNL d   1     -25.823  21.946  19.851  0.00  0.00    -0.168 F 
ATOM     26  F   UNL d   1     -24.602  22.824  18.131  0.00  0.00    -0.168 F 
ATOM     27  F   UNL d   1     -23.699  21.201  19.461  0.00  0.00    -0.168 F 
ENDBRANCH  22  24
ENDBRANCH  21  22
ENDBRANCH   1  21
BRANCH   3  28
ATOM     28  N   UNL d   1     -28.087  22.805  23.970  0.00  0.00    -0.178 N 
ATOM     29  C   UNL d   1     -28.483  22.024  25.000  0.00  0.00     0.351 A 
ATOM     30  N   UNL d   1     -29.778  21.740  24.808  0.00  0.00    -0.280 N 
ATOM     31  O   UNL d   1     -27.792  21.650  25.930  0.00  0.00    -0.244 OA
ATOM     32  C   UNL d   1     -30.180  22.318  23.618  0.00  0.00     0.155 A 
ATOM     33  C   UNL d   1     -30.686  20.972  25.668  0.00  0.00     0.161 C 
ATOM     34  N   UNL d   1     -29.187  22.959  23.112  0.00  0.00    -0.147 NA
ATOM     35  C   UNL d   1     -31.579  22.163  23.068  0.00  0.00     0.248 C 
ATOM     36  O   UNL d   1     -32.418  21.700  24.137  0.00  0.00    -0.382 OA
ATOM     37  C   UNL d   1     -31.899  20.556  24.824  0.00  0.00     0.188 C 
ENDBRANCH   3  28
TORSDOF 6
ENDMDL
