MODEL 1
REMARK VINA RESULT:      -9.7      0.000      0.000
REMARK  3 active torsions:
REMARK  status: ('A' for Active; 'I' for Inactive)
REMARK    1  A    between atoms: C_3  and  O_4 
REMARK    2  A    between atoms: C_5  and  N_6 
REMARK    3  A    between atoms: N_6  and  C_7 
ROOT
ATOM      1  O   UNL d   1     -31.003  21.430  26.363  0.00  0.00    -0.284 OA
ATOM      2  C   UNL d   1     -30.467  21.604  25.285  0.00  0.00     0.218 A 
ATOM      3  C   UNL d   1     -29.003  21.623  25.188  0.00  0.00     0.148 A 
ATOM      4  C   UNL d   1     -28.388  21.822  23.992  0.00  0.00     0.121 A 
ATOM      5  C   UNL d   1     -29.181  22.015  22.762  0.00  0.00     0.212 A 
ATOM      6  O   UNL d   1     -28.621  22.188  21.697  0.00  0.00    -0.285 OA
ATOM      7  C   UNL d   1     -30.659  21.996  22.830  0.00  0.00     0.031 A 
ATOM      8  C   UNL d   1     -31.425  22.174  21.686  0.00  0.00     0.016 A 
ATOM      9  C   UNL d   1     -32.809  22.151  21.773  0.00  0.00     0.001 A 
ATOM     10  C   UNL d   1     -33.429  21.953  22.991  0.00  0.00     0.001 A 
ATOM     11  C   UNL d   1     -32.677  21.775  24.142  0.00  0.00     0.016 A 
ATOM     12  C   UNL d   1     -31.290  21.794  24.070  0.00  0.00     0.031 A 
ENDROOT
BRANCH   4  13
ATOM     13  N   UNL d   1     -27.004  21.840  23.927  0.00  0.00    -0.351 N 
ATOM     14  H   UNL d   1     -26.509  21.006  23.910  0.00  0.00     0.166 HD
BRANCH  13  15
ATOM     15  C   UNL d   1     -26.323  23.058  23.885  0.00  0.00     0.035 A 
ATOM     16  C   UNL d   1     -25.122  23.159  23.194  0.00  0.00     0.069 A 
ATOM     17  C   UNL d   1     -24.447  24.367  23.154  0.00  0.00     0.107 A 
ATOM     18  C   UNL d   1     -24.973  25.480  23.806  0.00  0.00     0.105 A 
ATOM     19  O   UNL d   1     -23.273  24.726  22.556  0.00  0.00    -0.323 OA
ATOM     20  C   UNL d   1     -26.168  25.374  24.500  0.00  0.00     0.042 A 
ATOM     21  O   UNL d   1     -24.128  26.536  23.618  0.00  0.00    -0.323 OA
ATOM     22  C   UNL d   1     -26.845  24.170  24.535  0.00  0.00     0.032 A 
ATOM     23  C   UNL d   1     -23.292  26.165  22.505  0.00  0.00     0.352 C 
ENDBRANCH  13  15
ENDBRANCH   4  13
BRANCH   3  24
ATOM     24  O   UNL d   1     -28.253  21.443  26.305  0.00  0.00    -0.355 OA
ATOM     25  H   UNL d   1     -27.465  22.004  26.344  0.00  0.00     0.218 HD
ENDBRANCH   3  24
TORSDOF 3
ENDMDL
