MODEL 1
REMARK VINA RESULT:      -8.7      0.000      0.000
REMARK  6 active torsions:
REMARK  status: ('A' for Active; 'I' for Inactive)
REMARK    1  A    between atoms: C_2  and  O_3 
REMARK    2  A    between atoms: C_2  and  C_32 
REMARK    3  A    between atoms: O_3  and  C_4 
REMARK    4  A    between atoms: C_6  and  N_7 
REMARK    5  A    between atoms: C_20  and  C_21 
REMARK       I    between atoms: C_21  and  N_23 
REMARK    6  A    between atoms: N_23  and  C_24 
ROOT
ATOM      1  C   UNL d   1     -20.289  25.212  24.183  0.00  0.00     0.087 A 
ATOM      2  C   UNL d   1     -21.564  24.682  24.089  0.00  0.00     0.073 A 
ATOM      3  C   UNL d   1     -22.037  24.223  22.867  0.00  0.00     0.104 A 
ATOM      4  C   UNL d   1     -21.236  24.303  21.729  0.00  0.00     0.146 A 
ATOM      5  F   UNL d   1     -21.706  23.858  20.542  0.00  0.00    -0.204 F 
ATOM      6  C   UNL d   1     -19.968  24.832  21.811  0.00  0.00     0.064 A 
ATOM      7  C   UNL d   1     -19.481  25.293  23.038  0.00  0.00     0.068 A 
ENDROOT
BRANCH   7   8
ATOM      8  C   UNL d   1     -18.126  25.860  23.130  0.00  0.00     0.259 C 
ATOM      9  O   UNL d   1     -17.194  25.303  22.582  0.00  0.00    -0.267 OA
ATOM     10  N   UNL d   1     -17.918  26.999  23.822  0.00  0.00    -0.321 N 
ATOM     11  H   UNL d   1     -18.669  27.475  24.209  0.00  0.00     0.169 HD
BRANCH  10  12
ATOM     12  C   UNL d   1     -16.618  27.492  23.982  0.00  0.00     0.059 A 
ATOM     13  C   UNL d   1     -15.845  27.080  25.060  0.00  0.00     0.060 A 
ATOM     14  C   UNL d   1     -14.561  27.569  25.217  0.00  0.00     0.029 A 
ATOM     15 CL   UNL d   1     -16.491  25.951  26.211  0.00  0.00    -0.082 Cl
ATOM     16  C   UNL d   1     -14.047  28.469  24.301  0.00  0.00     0.044 A 
ATOM     17  C   UNL d   1     -14.814  28.882  23.225  0.00  0.00     0.118 A 
ATOM     18  C   UNL d   1     -16.097  28.391  23.061  0.00  0.00     0.073 A 
ATOM     19  F   UNL d   1     -14.308  29.760  22.333  0.00  0.00    -0.206 F 
ENDBRANCH  10  12
ENDBRANCH   7   8
BRANCH   1  20
ATOM     20  O   UNL d   1     -19.824  25.657  25.377  0.00  0.00    -0.345 OA
BRANCH  20  21
ATOM     21  C   UNL d   1     -20.758  26.319  26.231  0.00  0.00     0.129 C 
ATOM     22  C   UNL d   1     -20.585  25.816  27.666  0.00  0.00     0.040 C 
BRANCH  21  23
ATOM     23  C   UNL d   1     -20.509  27.828  26.188  0.00  0.00     0.015 C 
ATOM     24  C   UNL d   1     -21.639  28.552  26.924  0.00  0.00     0.007 C 
ATOM     25  C   UNL d   1     -21.390  30.062  26.881  0.00  0.00     0.000 C 
ATOM     26  C   UNL d   1     -20.055  30.378  27.558  0.00  0.00     0.000 C 
ATOM     27  C   UNL d   1     -18.925  29.654  26.822  0.00  0.00     0.000 C 
ATOM     28  C   UNL d   1     -19.174  28.145  26.865  0.00  0.00     0.007 C 
ENDBRANCH  21  23
ENDBRANCH  20  21
ENDBRANCH   1  20
BRANCH   3  29
ATOM     29  N   UNL d   1     -23.323  23.684  22.778  0.00  0.00    -0.178 N 
ATOM     30  C   UNL d   1     -24.445  24.194  23.331  0.00  0.00     0.351 A 
ATOM     31  N   UNL d   1     -25.465  23.393  22.981  0.00  0.00    -0.284 N 
ATOM     32  O   UNL d   1     -24.518  25.196  24.021  0.00  0.00    -0.244 OA
ATOM     33  C   UNL d   1     -24.959  22.348  22.234  0.00  0.00     0.131 A 
ATOM     34  C   UNL d   1     -26.887  23.568  23.297  0.00  0.00     0.135 C 
ATOM     35  N   UNL d   1     -23.687  22.511  22.098  0.00  0.00    -0.149 NA
ATOM     36  C   UNL d   1     -25.804  21.218  21.693  0.00  0.00     0.081 C 
ATOM     37  C   UNL d   1     -27.271  21.670  21.715  0.00  0.00     0.009 C 
ATOM     38  C   UNL d   1     -27.601  22.226  23.104  0.00  0.00     0.021 C 
ENDBRANCH   3  29
TORSDOF 6
ENDMDL
