MODEL 1
REMARK VINA RESULT:     -11.3      0.000      0.000
REMARK  7 active torsions:
REMARK  status: ('A' for Active; 'I' for Inactive)
REMARK    1  A    between atoms: C_5  and  N_6 
REMARK    2  A    between atoms: N_6  and  C_7 
REMARK    3  A    between atoms: C_10  and  C_11 
REMARK    4  A    between atoms: C_15  and  O_16 
REMARK    5  A    between atoms: O_16  and  C_17 
REMARK    6  A    between atoms: C_25  and  C_26 
REMARK    7  A    between atoms: C_26  and  O_28 
ROOT
ATOM      1  C   UNL d   1     -28.311  21.916  24.813  0.00  0.00     0.072 A 
ATOM      2  C   UNL d   1     -27.914  21.928  23.481  0.00  0.00     0.033 A 
ATOM      3  C   UNL d   1     -26.848  22.709  23.085  0.00  0.00     0.014 A 
ATOM      4  C   UNL d   1     -26.168  23.486  24.022  0.00  0.00    -0.023 A 
ATOM      5  C   UNL d   1     -26.567  23.473  25.357  0.00  0.00     0.057 A 
ATOM      6  C   UNL d   1     -27.638  22.696  25.749  0.00  0.00     0.143 A 
ATOM      7  F   UNL d   1     -28.029  22.687  27.042  0.00  0.00    -0.204 F 
ENDROOT
BRANCH   1   8
ATOM      8  N   UNL d   1     -29.393  21.126  25.212  0.00  0.00    -0.338 N 
ATOM      9  H   UNL d   1     -29.297  20.513  25.958  0.00  0.00     0.167 HD
BRANCH   8  10
ATOM     10  C   UNL d   1     -30.599  21.217  24.543  0.00  0.00     0.144 A 
ATOM     11  N   UNL d   1     -30.752  22.110  23.576  0.00  0.00    -0.242 NA
ATOM     12  C   UNL d   1     -31.885  22.229  22.913  0.00  0.00     0.125 A 
ATOM     13  C   UNL d   1     -32.972  21.424  23.200  0.00  0.00    -0.043 A 
ATOM     14  C   UNL d   1     -34.258  21.580  22.428  0.00  0.00     0.049 C 
ATOM     15  C   UNL d   1     -32.873  20.477  24.203  0.00  0.00     0.030 A 
ATOM     16  C   UNL d   1     -31.659  20.362  24.892  0.00  0.00     0.084 A 
BRANCH  16  17
ATOM     17  C   UNL d   1     -31.497  19.366  25.965  0.00  0.00     0.180 C 
ATOM     18  O   UNL d   1     -31.852  18.217  25.786  0.00  0.00    -0.646 OA
BRANCH  17  19
ATOM     19  O   UNL d   1     -30.958  19.728  27.145  0.00  0.00    -0.773 OA
ATOM     20  H   UNL d   1     -31.570  19.917  27.869  0.00  0.00     0.167 HD
ENDBRANCH  17  19
ENDBRANCH  16  17
ENDBRANCH   8  10
ENDBRANCH   1   8
BRANCH   4  21
ATOM     21  C   UNL d   1     -25.021  24.326  23.597  0.00  0.00    -0.023 A 
ATOM     22  C   UNL d   1     -23.959  23.757  22.899  0.00  0.00     0.049 A 
ATOM     23  C   UNL d   1     -22.891  24.547  22.505  0.00  0.00     0.079 A 
ATOM     24  C   UNL d   1     -22.882  25.902  22.806  0.00  0.00     0.037 A 
ATOM     25  C   UNL d   1     -23.937  26.468  23.499  0.00  0.00     0.004 A 
ATOM     26  C   UNL d   1     -25.006  25.689  23.891  0.00  0.00     0.012 A 
BRANCH  23  27
ATOM     27  O   UNL d   1     -21.853  23.996  21.824  0.00  0.00    -0.255 OA
BRANCH  27  28
ATOM     28  C   UNL d   1     -20.557  24.108  22.415  0.00  0.00     0.530 C 
ATOM     29  F   UNL d   1     -19.696  23.175  21.829  0.00  0.00    -0.144 F 
ATOM     30  F   UNL d   1     -20.059  25.398  22.206  0.00  0.00    -0.144 F 
ATOM     31  F   UNL d   1     -20.649  23.861  23.789  0.00  0.00    -0.144 F 
ENDBRANCH  27  28
ENDBRANCH  23  27
ENDBRANCH   4  21
TORSDOF 7
ENDMDL
