MODEL 1
REMARK VINA RESULT:     -12.2      0.000      0.000
REMARK  3 active torsions:
REMARK  status: ('A' for Active; 'I' for Inactive)
REMARK    1  A    between atoms: C_3  and  O_4 
REMARK    2  A    between atoms: C_5  and  C_6 
REMARK    3  A    between atoms: C_9  and  C_10 
ROOT
ATOM      1  O   UNL d   1     -31.113  21.101  26.299  0.00  0.00    -0.284 OA
ATOM      2  C   UNL d   1     -30.678  21.436  25.217  0.00  0.00     0.216 A 
ATOM      3  C   UNL d   1     -29.221  21.635  25.028  0.00  0.00     0.127 A 
ATOM      4  C   UNL d   1     -28.727  22.012  23.831  0.00  0.00     0.034 A 
ATOM      5  C   UNL d   1     -29.613  22.224  22.683  0.00  0.00     0.192 A 
ATOM      6  O   UNL d   1     -29.148  22.559  21.610  0.00  0.00    -0.287 OA
ATOM      7  C   UNL d   1     -31.072  22.030  22.830  0.00  0.00     0.029 A 
ATOM      8  C   UNL d   1     -31.929  22.227  21.754  0.00  0.00     0.016 A 
ATOM      9  C   UNL d   1     -33.292  22.040  21.916  0.00  0.00     0.001 A 
ATOM     10  C   UNL d   1     -33.807  21.659  23.140  0.00  0.00     0.001 A 
ATOM     11  C   UNL d   1     -32.967  21.459  24.223  0.00  0.00     0.016 A 
ATOM     12  C   UNL d   1     -31.596  21.643  24.077  0.00  0.00     0.031 A 
ENDROOT
BRANCH   4  13
ATOM     13  C   UNL d   1     -27.242  22.211  23.671  0.00  0.00     0.026 C 
ATOM     14  C   UNL d   1     -26.899  23.687  23.884  0.00  0.00     0.010 C 
ATOM     15  C   UNL d   1     -25.392  23.890  23.721  0.00  0.00     0.010 C 
ATOM     16  C   UNL d   1     -24.969  23.467  22.313  0.00  0.00     0.018 C 
ATOM     17  C   UNL d   1     -25.312  21.992  22.099  0.00  0.00     0.010 C 
ATOM     18  C   UNL d   1     -26.819  21.789  22.262  0.00  0.00     0.010 C 
BRANCH  16  19
ATOM     19  C   UNL d   1     -23.484  23.667  22.152  0.00  0.00    -0.054 A 
ATOM     20  C   UNL d   1     -22.980  24.195  20.979  0.00  0.00     0.009 A 
ATOM     21  C   UNL d   1     -21.618  24.384  20.834  0.00  0.00     0.024 A 
ATOM     22  C   UNL d   1     -20.759  24.032  21.860  0.00  0.00     0.034 A 
ATOM     23  C   UNL d   1     -21.264  23.502  23.034  0.00  0.00     0.024 A 
ATOM     24 CL   UNL d   1     -19.048  24.260  21.676  0.00  0.00    -0.084 Cl
ATOM     25  C   UNL d   1     -22.626  23.320  23.180  0.00  0.00     0.009 A 
ENDBRANCH  16  19
ENDBRANCH   4  13
BRANCH   3  26
ATOM     26  O   UNL d   1     -28.379  21.441  26.069  0.00  0.00    -0.356 OA
ATOM     27  H   UNL d   1     -28.615  20.690  26.631  0.00  0.00     0.218 HD
ENDBRANCH   3  26
TORSDOF 3
ENDMDL
