MODEL 1
REMARK VINA RESULT:     -12.2      0.000      0.000
REMARK  6 active torsions:
REMARK  status: ('A' for Active; 'I' for Inactive)
REMARK    1  A    between atoms: O_2  and  C_3 
REMARK    2  A    between atoms: C_5  and  C_6 
REMARK    3  A    between atoms: C_9  and  C_10 
REMARK    4  A    between atoms: C_13  and  C_14 
REMARK       I    between atoms: C_14  and  N_15 
REMARK    5  A    between atoms: C_29  and  N_30 
REMARK       I    between atoms: N_30  and  C_31 
REMARK    6  A    between atoms: C_31  and  C_33 
ROOT
ATOM      1  C   UNL d   1     -25.481  23.414  23.300  0.00  0.00    -0.023 A 
ATOM      2  C   UNL d   1     -26.244  23.872  24.375  0.00  0.00     0.013 A 
ATOM      3  C   UNL d   1     -27.531  23.417  24.551  0.00  0.00     0.019 A 
ATOM      4  C   UNL d   1     -28.071  22.487  23.660  0.00  0.00     0.049 A 
ATOM      5  C   UNL d   1     -27.304  22.024  22.585  0.00  0.00     0.131 A 
ATOM      6  F   UNL d   1     -27.824  21.124  21.722  0.00  0.00    -0.205 F 
ATOM      7  C   UNL d   1     -26.016  22.485  22.408  0.00  0.00     0.055 A 
ENDROOT
BRANCH   4   8
ATOM      8  C   UNL d   1     -29.449  21.994  23.852  0.00  0.00     0.142 A 
ATOM      9  N   UNL d   1     -29.892  21.298  24.943  0.00  0.00    -0.338 N 
ATOM     10  C   UNL d   1     -31.232  21.024  24.733  0.00  0.00     0.067 A 
ATOM     11  H   UNL d   1     -29.366  21.043  25.718  0.00  0.00     0.167 HD
ATOM     12  C   UNL d   1     -31.553  21.584  23.485  0.00  0.00     0.101 A 
ATOM     13  C   UNL d   1     -32.202  20.363  25.469  0.00  0.00     0.074 A 
ATOM     14  N   UNL d   1     -30.437  22.160  23.003  0.00  0.00    -0.227 NA
ATOM     15  C   UNL d   1     -32.872  21.465  22.992  0.00  0.00     0.065 A 
ATOM     16  C   UNL d   1     -33.829  20.795  23.751  0.00  0.00     0.061 A 
ATOM     17  C   UNL d   1     -33.491  20.251  24.979  0.00  0.00     0.119 A 
ATOM     18  F   UNL d   1     -34.430  19.605  25.705  0.00  0.00    -0.206 F 
BRANCH  15  19
ATOM     19  C   UNL d   1     -33.231  22.045  21.686  0.00  0.00     0.251 C 
ATOM     20  N   UNL d   1     -32.383  21.937  20.644  0.00  0.00    -0.366 N 
ATOM     21  H   UNL d   1     -31.536  21.477  20.754  0.00  0.00     0.159 HD
ATOM     22  H   UNL d   1     -32.620  22.319  19.784  0.00  0.00     0.159 HD
ATOM     23  O   UNL d   1     -34.293  22.621  21.548  0.00  0.00    -0.268 OA
ENDBRANCH  15  19
ENDBRANCH   4   8
BRANCH   1  24
ATOM     24  C   UNL d   1     -24.097  23.911  23.110  0.00  0.00    -0.023 A 
ATOM     25  C   UNL d   1     -23.769  25.217  23.467  0.00  0.00     0.051 A 
ATOM     26  C   UNL d   1     -22.477  25.678  23.287  0.00  0.00     0.095 A 
ATOM     27  C   UNL d   1     -21.506  24.834  22.750  0.00  0.00     0.068 A 
ATOM     28  C   UNL d   1     -21.835  23.532  22.395  0.00  0.00     0.033 A 
ATOM     29  C   UNL d   1     -23.122  23.071  22.573  0.00  0.00     0.014 A 
BRANCH  26  30
ATOM     30  O   UNL d   1     -22.154  26.951  23.640  0.00  0.00    -0.354 OA
ATOM     31  C   UNL d   1     -21.980  27.215  25.033  0.00  0.00     0.210 C 
ENDBRANCH  26  30
BRANCH  27  32
ATOM     32  N   UNL d   1     -20.199  25.300  22.569  0.00  0.00    -0.324 N 
ATOM     33  C   UNL d   1     -19.292  25.164  23.557  0.00  0.00     0.226 C 
ATOM     34  O   UNL d   1     -19.580  24.551  24.563  0.00  0.00    -0.273 OA
ATOM     35  H   UNL d   1     -19.945  25.720  21.732  0.00  0.00     0.169 HD
BRANCH  33  36
ATOM     36  C   UNL d   1     -17.923  25.775  23.413  0.00  0.00     0.078 A 
ATOM     37  C   UNL d   1     -17.625  27.041  24.219  0.00  0.00     0.015 A 
ATOM     38  C   UNL d   1     -16.988  25.708  24.623  0.00  0.00     0.015 A 
ENDBRANCH  33  36
ENDBRANCH  27  32
ENDBRANCH   1  24
TORSDOF 6
ENDMDL
