MODEL 1
REMARK VINA RESULT:     -13.0      0.000      0.000
REMARK  3 active torsions:
REMARK  status: ('A' for Active; 'I' for Inactive)
REMARK    1  A    between atoms: C_3  and  C_4 
REMARK    2  A    between atoms: C_7  and  C_8 
REMARK    3  A    between atoms: C_25  and  C_26 
REMARK       I    between atoms: C_26  and  N_27 
ROOT
ATOM      1  C   UNL d   1     -27.901  21.872  25.572  0.00  0.00     0.052 C 
ATOM      2  C   UNL d   1     -28.831  21.960  24.389  0.00  0.00    -0.016 A 
ATOM      3  C   UNL d   1     -28.355  22.405  23.146  0.00  0.00     0.074 A 
ATOM      4  N   UNL d   1     -29.131  22.492  22.086  0.00  0.00    -0.247 NA
ATOM      5  C   UNL d   1     -30.425  22.169  22.120  0.00  0.00     0.069 A 
ATOM      6  C   UNL d   1     -31.229  22.272  20.970  0.00  0.00     0.035 A 
ATOM      7  C   UNL d   1     -32.546  21.936  21.034  0.00  0.00     0.044 A 
ATOM      8  C   UNL d   1     -33.116  21.488  22.225  0.00  0.00     0.117 A 
ATOM      9  F   UNL d   1     -34.428  21.162  22.257  0.00  0.00    -0.206 F 
ATOM     10  C   UNL d   1     -32.366  21.376  23.361  0.00  0.00     0.057 A 
ATOM     11  C   UNL d   1     -31.010  21.714  23.329  0.00  0.00     0.012 A 
ATOM     12  C   UNL d   1     -30.167  21.609  24.521  0.00  0.00     0.052 A 
ENDROOT
BRANCH   3  13
ATOM     13  C   UNL d   1     -26.928  22.784  23.021  0.00  0.00    -0.007 A 
ATOM     14  C   UNL d   1     -26.433  23.882  23.724  0.00  0.00     0.014 A 
ATOM     15  C   UNL d   1     -25.106  24.230  23.613  0.00  0.00     0.013 A 
ATOM     16  C   UNL d   1     -24.258  23.492  22.786  0.00  0.00    -0.023 A 
ATOM     17  C   UNL d   1     -24.752  22.394  22.083  0.00  0.00     0.013 A 
ATOM     18  C   UNL d   1     -26.078  22.042  22.199  0.00  0.00     0.014 A 
BRANCH  16  19
ATOM     19  C   UNL d   1     -22.830  23.871  22.661  0.00  0.00     0.013 A 
ATOM     20  C   UNL d   1     -22.366  24.478  21.493  0.00  0.00     0.127 A 
ATOM     21  C   UNL d   1     -21.031  24.822  21.381  0.00  0.00     0.043 A 
ATOM     22  F   UNL d   1     -23.216  24.721  20.472  0.00  0.00    -0.205 F 
ATOM     23  C   UNL d   1     -20.162  24.579  22.428  0.00  0.00     0.003 A 
ATOM     24  C   UNL d   1     -20.618  23.979  23.588  0.00  0.00     0.001 A 
ATOM     25  C   UNL d   1     -21.946  23.624  23.710  0.00  0.00     0.015 A 
ENDBRANCH  16  19
ENDBRANCH   3  13
BRANCH  12  26
ATOM     26  C   UNL d   1     -30.715  21.140  25.811  0.00  0.00     0.250 C 
ATOM     27  N   UNL d   1     -30.543  19.858  26.191  0.00  0.00    -0.366 N 
ATOM     28  H   UNL d   1     -30.059  19.244  25.617  0.00  0.00     0.159 HD
ATOM     29  H   UNL d   1     -30.902  19.551  27.038  0.00  0.00     0.159 HD
ATOM     30  O   UNL d   1     -31.321  21.910  26.530  0.00  0.00    -0.268 OA
ENDBRANCH  12  26
TORSDOF 3
ENDMDL
