MODEL 1
REMARK VINA RESULT:      -8.9      0.000      0.000
REMARK  6 active torsions:
REMARK  status: ('A' for Active; 'I' for Inactive)
REMARK    1  A    between atoms: C_2  and  N_3 
REMARK    2  A    between atoms: C_4  and  C_5 
REMARK    3  A    between atoms: C_5  and  O_6 
REMARK    4  A    between atoms: N_8  and  C_9 
REMARK    5  A    between atoms: N_15  and  C_16 
REMARK    6  A    between atoms: C_25  and  C_26 
ROOT
ATOM      1  C   UNL d   1     -21.973  24.094  22.829  0.00  0.00     0.064 A 
ATOM      2  C   UNL d   1     -21.043  23.587  21.918  0.00  0.00     0.033 A 
ATOM      3  C   UNL d   1     -19.748  24.017  21.928  0.00  0.00     0.020 A 
ATOM      4  C   UNL d   1     -19.343  24.975  22.859  0.00  0.00     0.043 A 
ATOM      5  C   UNL d   1     -17.964  25.470  22.911  0.00  0.00     0.263 A 
ATOM      6  O   UNL d   1     -17.129  25.048  22.131  0.00  0.00    -0.267 OA
ATOM      7  N   UNL d   1     -17.631  26.396  23.831  0.00  0.00    -0.284 N 
ATOM      8  C   UNL d   1     -18.536  26.896  24.725  0.00  0.00     0.109 A 
ATOM      9  C   UNL d   1     -19.818  26.500  24.748  0.00  0.00    -0.022 A 
ATOM     10  C   UNL d   1     -20.278  25.495  23.787  0.00  0.00    -0.010 A 
ATOM     11  C   UNL d   1     -21.598  25.049  23.759  0.00  0.00     0.044 A 
ENDROOT
BRANCH   1  12
ATOM     12  N   UNL d   1     -23.293  23.638  22.799  0.00  0.00    -0.181 N 
ATOM     13  N   UNL d   1     -23.762  22.495  22.139  0.00  0.00    -0.147 NA
ATOM     14  C   UNL d   1     -25.037  22.407  22.342  0.00  0.00     0.154 A 
ATOM     15  N   UNL d   1     -25.436  23.465  23.123  0.00  0.00    -0.283 N 
ATOM     16  C   UNL d   1     -24.354  24.222  23.395  0.00  0.00     0.351 A 
ATOM     17  O   UNL d   1     -24.337  25.243  24.059  0.00  0.00    -0.244 OA
BRANCH  14  18
ATOM     18  C   UNL d   1     -25.938  21.322  21.809  0.00  0.00     0.244 C 
BRANCH  18  19
ATOM     19  O   UNL d   1     -26.385  21.674  20.499  0.00  0.00    -0.393 OA
ATOM     20  H   UNL d   1     -27.125  22.296  20.490  0.00  0.00     0.209 HD
ENDBRANCH  18  19
ENDBRANCH  14  18
BRANCH  15  21
ATOM     21  C   UNL d   1     -26.803  23.728  23.577  0.00  0.00     0.131 C 
ATOM     22  C   UNL d   1     -27.018  23.083  24.948  0.00  0.00     0.027 C 
ENDBRANCH  15  21
ENDBRANCH   1  12
BRANCH   9  23
ATOM     23  C   UNL d   1     -20.777  27.082  25.754  0.00  0.00    -0.015 A 
ATOM     24  C   UNL d   1     -20.826  26.436  27.140  0.00  0.00     0.015 A 
ATOM     25  C   UNL d   1     -20.179  27.812  26.959  0.00  0.00     0.015 A 
ATOM     26  C   UNL d   1     -22.088  27.622  25.180  0.00  0.00     0.020 C 
ENDBRANCH   9  23
BRANCH   7  27
ATOM     27  C   UNL d   1     -16.310  26.863  23.873  0.00  0.00     0.102 A 
ATOM     28  C   UNL d   1     -15.380  26.246  24.699  0.00  0.00     0.064 A 
ATOM     29  C   UNL d   1     -14.076  26.705  24.733  0.00  0.00     0.026 A 
ATOM     30 CL   UNL d   1     -15.851  24.895  25.682  0.00  0.00    -0.082 Cl
ATOM     31  C   UNL d   1     -13.701  27.784  23.955  0.00  0.00     0.005 A 
ATOM     32  C   UNL d   1     -14.624  28.405  23.135  0.00  0.00     0.045 A 
ATOM     33  C   UNL d   1     -15.930  27.948  23.091  0.00  0.00     0.145 A 
ATOM     34  F   UNL d   1     -16.832  28.555  22.289  0.00  0.00    -0.204 F 
ENDBRANCH   7  27
TORSDOF 6
ENDMDL
