MODEL 1
REMARK VINA RESULT:      -7.5      0.000      0.000
REMARK  3 active torsions:
REMARK  status: ('A' for Active; 'I' for Inactive)
REMARK    1  A    between atoms: C_2  and  C_4 
REMARK    2  A    between atoms: C_4  and  C_7 
REMARK       I    between atoms: C_7  and  N_9 
REMARK    3  A    between atoms: N_9  and  C_10 
ROOT
ATOM      1  C   UNL d   1     -31.779  21.611  24.765  0.00  0.00     0.253 C 
ATOM      2  C   UNL d   1     -32.656  20.946  23.789  0.00  0.00     0.081 C 
ATOM      3  N   UNL d   1     -33.334  20.432  23.035  0.00  0.00    -0.196 NA
ENDROOT
BRANCH   1   4
ATOM      4  C   UNL d   1     -31.462  20.657  25.888  0.00  0.00     0.149 C 
ATOM      5  C   UNL d   1     -32.012  19.255  25.864  0.00  0.00     0.093 C 
ATOM      6  O   UNL d   1     -30.766  21.017  26.808  0.00  0.00    -0.296 OA
ENDBRANCH   1   4
BRANCH   1   7
ATOM      7  C   UNL d   1     -30.500  22.031  24.086  0.00  0.00     0.247 C 
ATOM      8  O   UNL d   1     -30.524  22.880  23.220  0.00  0.00    -0.271 OA
ATOM      9  N   UNL d   1     -29.330  21.465  24.444  0.00  0.00    -0.326 N 
ATOM     10  H   UNL d   1     -29.319  20.740  25.087  0.00  0.00     0.169 HD
BRANCH   9  11
ATOM     11  C   UNL d   1     -28.132  21.924  23.884  0.00  0.00     0.034 A 
ATOM     12  C   UNL d   1     -27.701  21.428  22.661  0.00  0.00     0.029 A 
ATOM     13  C   UNL d   1     -26.518  21.883  22.113  0.00  0.00     0.002 A 
ATOM     14  C   UNL d   1     -25.762  22.830  22.780  0.00  0.00     0.000 A 
ATOM     15  C   UNL d   1     -26.190  23.326  23.999  0.00  0.00     0.002 A 
ATOM     16  C   UNL d   1     -27.372  22.875  24.552  0.00  0.00     0.029 A 
ENDBRANCH   9  11
ENDBRANCH   1   7
TORSDOF 3
ENDMDL
