MODEL 1
REMARK VINA RESULT:      -8.6      0.000      0.000
REMARK  5 active torsions:
REMARK  status: ('A' for Active; 'I' for Inactive)
REMARK    1  A    between atoms: C_2  and  OXT_3 
REMARK    2  A    between atoms: C_2  and  CA_4 
REMARK    3  A    between atoms: C_13  and  C_14 
REMARK    4  A    between atoms: C_14  and  C_15 
REMARK    5  A    between atoms: C_15  and  C_16 
ROOT
ATOM      1  CA  UNL d   1     -26.825  22.734  23.259  0.00  0.00     0.122 A 
ATOM      2  N   UNL d   1     -25.653  22.338  22.651  0.00  0.00    -0.302 N 
ATOM      3  H   UNL d   1     -24.805  22.548  23.070  0.00  0.00     0.171 HD
ATOM      4  C   UNL d   1     -25.667  21.672  21.484  0.00  0.00     0.327 A 
ATOM      5  O   UNL d   1     -24.611  21.345  20.978  0.00  0.00    -0.247 OA
ATOM      6  N   UNL d   1     -26.816  21.357  20.862  0.00  0.00    -0.275 N 
ATOM      7  H   UNL d   1     -26.792  20.876  20.020  0.00  0.00     0.173 HD
ATOM      8  C   UNL d   1     -28.003  21.708  21.400  0.00  0.00     0.258 A 
ATOM      9  O   UNL d   1     -29.044  21.425  20.839  0.00  0.00    -0.267 OA
ATOM     10  C   UNL d   1     -28.014  22.436  22.675  0.00  0.00     0.044 A 
ENDROOT
BRANCH  10  11
ATOM     11  C   UNL d   1     -29.314  22.850  23.315  0.00  0.00     0.051 C 
BRANCH  11  12
ATOM     12  C   UNL d   1     -29.742  21.790  24.332  0.00  0.00     0.043 C 
BRANCH  12  13
ATOM     13  C   UNL d   1     -31.193  21.445  24.118  0.00  0.00    -0.056 A 
ATOM     14  C   UNL d   1     -31.870  21.953  23.025  0.00  0.00     0.031 A 
ATOM     15  C   UNL d   1     -33.202  21.636  22.829  0.00  0.00     0.034 A 
ATOM     16  C   UNL d   1     -33.856  20.810  23.726  0.00  0.00     0.024 A 
ATOM     17 CL   UNL d   1     -34.054  22.274  21.457  0.00  0.00    -0.084 Cl
ATOM     18  C   UNL d   1     -33.177  20.302  24.817  0.00  0.00     0.002 A 
ATOM     19  C   UNL d   1     -31.845  20.615  25.012  0.00  0.00     0.007 A 
ENDBRANCH  12  13
ENDBRANCH  11  12
ENDBRANCH  10  11
BRANCH   1  20
ATOM     20  C   UNL d   1     -26.787  23.474  24.544  0.00  0.00     0.194 C 
ATOM     21  O   UNL d   1     -26.832  22.867  25.595  0.00  0.00    -0.645 OA
BRANCH  20  22
ATOM     22  OXT UNL d   1     -26.704  24.818  24.545  0.00  0.00    -0.772 OA
ATOM     23  HXT UNL d   1     -25.838  25.204  24.735  0.00  0.00     0.167 HD
ENDBRANCH  20  22
ENDBRANCH   1  20
TORSDOF 5
ENDMDL
