MODEL 1
REMARK VINA RESULT:      -8.7      0.000      0.000
REMARK  6 active torsions:
REMARK  status: ('A' for Active; 'I' for Inactive)
REMARK    1  A    between atoms: C_2  and  O_3 
REMARK    2  A    between atoms: O_3  and  C_4 
REMARK    3  A    between atoms: C_4  and  C_6 
REMARK    4  A    between atoms: C_8  and  N_9 
REMARK    5  A    between atoms: N_9  and  C_10 
REMARK    6  A    between atoms: C_19  and  C_20 
ROOT
ATOM      1  C   UNL d   1     -31.874  21.024  24.395  0.00  0.00     0.109 A 
ATOM      2  S   UNL d   1     -30.362  21.450  25.193  0.00  0.00    -0.044 SA
ATOM      3  C   UNL d   1     -29.949  22.477  23.891  0.00  0.00     0.172 A 
ATOM      4  N   UNL d   1     -30.884  22.463  22.984  0.00  0.00    -0.227 NA
ATOM      5  C   UNL d   1     -31.924  21.701  23.206  0.00  0.00     0.068 A 
ENDROOT
BRANCH   3   6
ATOM      6  N   UNL d   1     -28.789  23.218  23.812  0.00  0.00    -0.335 N 
ATOM      7  H   UNL d   1     -28.725  24.070  24.272  0.00  0.00     0.168 HD
BRANCH   6   8
ATOM      8  C   UNL d   1     -27.705  22.742  23.070  0.00  0.00     0.035 A 
ATOM      9  C   UNL d   1     -26.412  23.120  23.405  0.00  0.00     0.053 A 
ATOM     10  C   UNL d   1     -25.342  22.643  22.670  0.00  0.00     0.042 A 
ATOM     11  C   UNL d   1     -25.559  21.797  21.598  0.00  0.00    -0.040 A 
ATOM     12 CL   UNL d   1     -23.723  23.110  23.092  0.00  0.00    -0.084 Cl
ATOM     13  C   UNL d   1     -26.847  21.423  21.259  0.00  0.00     0.011 A 
ATOM     14  C   UNL d   1     -24.391  21.282  20.797  0.00  0.00     0.050 C 
ATOM     15  C   UNL d   1     -27.920  21.892  21.991  0.00  0.00     0.030 A 
ENDBRANCH   6   8
ENDBRANCH   3   6
BRANCH   1  16
ATOM     16  C   UNL d   1     -32.861  20.137  24.892  0.00  0.00     0.302 C 
ATOM     17  O   UNL d   1     -33.959  20.558  25.201  0.00  0.00    -0.259 OA
BRANCH  16  18
ATOM     18  O   UNL d   1     -32.581  18.823  25.024  0.00  0.00    -0.317 OA
BRANCH  18  19
ATOM     19  C   UNL d   1     -32.396  18.328  26.352  0.00  0.00     0.174 C 
ATOM     20  C   UNL d   1     -30.914  18.027  26.583  0.00  0.00     0.034 C 
ENDBRANCH  18  19
ENDBRANCH  16  18
ENDBRANCH   1  16
BRANCH   5  21
ATOM     21  C   UNL d   1     -33.076  21.582  22.242  0.00  0.00    -0.005 C 
ATOM     22  C   UNL d   1     -33.632  20.157  22.285  0.00  0.00     0.021 C 
ATOM     23  C   UNL d   1     -34.174  22.572  22.637  0.00  0.00     0.021 C 
ATOM     24  C   UNL d   1     -32.591  21.897  20.826  0.00  0.00     0.021 C 
ENDBRANCH   5  21
TORSDOF 6
ENDMDL
