MODEL 1
REMARK VINA RESULT:     -10.7      0.000      0.000
REMARK  7 active torsions:
REMARK  status: ('A' for Active; 'I' for Inactive)
REMARK    1  A    between atoms: N_2  and  N_3 
REMARK    2  A    between atoms: N_2  and  C_16 
REMARK    3  A    between atoms: C_4  and  C_5 
REMARK    4  A    between atoms: C_7  and  N_8 
REMARK    5  A    between atoms: C_12  and  C_13 
REMARK    6  A    between atoms: C_13  and  O_15 
REMARK    7  A    between atoms: C_18  and  C_19 
ROOT
ATOM      1  N   UNL d   1     -28.525  22.558  23.354  0.00  0.00    -0.182 NA
ATOM      2  C   UNL d   1     -29.378  22.083  24.212  0.00  0.00     0.151 C 
ENDROOT
BRANCH   1   3
ATOM      3  N   UNL d   1     -27.280  23.028  23.792  0.00  0.00    -0.251 N 
ATOM      4  C   UNL d   1     -27.181  23.783  25.044  0.00  0.00     0.182 C 
BRANCH   3   5
ATOM      5  C   UNL d   1     -26.142  22.777  23.043  0.00  0.00     0.189 A 
ATOM      6  S   UNL d   1     -26.031  21.628  21.714  0.00  0.00    -0.060 SA
ATOM      7  C   UNL d   1     -24.335  22.053  21.488  0.00  0.00     0.086 A 
ATOM      8  C   UNL d   1     -24.009  22.982  22.403  0.00  0.00     0.078 A 
ATOM      9  N   UNL d   1     -24.990  23.349  23.216  0.00  0.00    -0.222 NA
BRANCH   8  10
ATOM     10  C   UNL d   1     -22.646  23.559  22.496  0.00  0.00     0.015 A 
ATOM     11  C   UNL d   1     -22.117  24.283  21.427  0.00  0.00     0.046 A 
ATOM     12  C   UNL d   1     -20.848  24.818  21.521  0.00  0.00     0.025 A 
ATOM     13 CL   UNL d   1     -23.054  24.511  19.983  0.00  0.00    -0.083 Cl
ATOM     14  C   UNL d   1     -20.101  24.638  22.670  0.00  0.00     0.002 A 
ATOM     15  C   UNL d   1     -20.620  23.920  23.733  0.00  0.00     0.001 A 
ATOM     16  C   UNL d   1     -21.890  23.385  23.654  0.00  0.00     0.015 A 
ENDBRANCH   8  10
ENDBRANCH   3   5
ENDBRANCH   1   3
BRANCH   2  17
ATOM     17  C   UNL d   1     -30.728  21.698  23.771  0.00  0.00     0.002 A 
ATOM     18  C   UNL d   1     -31.559  20.929  24.615  0.00  0.00     0.052 A 
ATOM     19  C   UNL d   1     -32.838  20.565  24.182  0.00  0.00     0.064 A 
ATOM     20  C   UNL d   1     -33.282  20.956  22.939  0.00  0.00     0.143 A 
ATOM     21  C   UNL d   1     -32.463  21.717  22.103  0.00  0.00     0.065 A 
ATOM     22  F   UNL d   1     -34.519  20.602  22.526  0.00  0.00    -0.204 F 
ATOM     23  C   UNL d   1     -31.192  22.086  22.515  0.00  0.00     0.046 A 
BRANCH  18  24
ATOM     24  C   UNL d   1     -31.081  20.513  25.941  0.00  0.00     0.177 C 
ATOM     25  O   UNL d   1     -30.943  21.337  26.824  0.00  0.00    -0.646 OA
BRANCH  24  26
ATOM     26  O   UNL d   1     -30.796  19.216  26.179  0.00  0.00    -0.773 OA
ATOM     27  H   UNL d   1     -30.212  19.025  26.924  0.00  0.00     0.167 HD
ENDBRANCH  24  26
ENDBRANCH  18  24
BRANCH  21  28
ATOM     28  N   UNL d   1     -32.924  22.106  20.848  0.00  0.00    -0.397 N 
ATOM     29  H   UNL d   1     -33.695  21.666  20.456  0.00  0.00     0.156 HD
ATOM     30  H   UNL d   1     -32.475  22.817  20.364  0.00  0.00     0.156 HD
ENDBRANCH  21  28
ENDBRANCH   2  17
TORSDOF 7
ENDMDL
