MODEL 1
REMARK VINA RESULT:      -9.4      0.000      0.000
REMARK  9 active torsions:
REMARK  status: ('A' for Active; 'I' for Inactive)
REMARK    1  A    between atoms: C_2  and  N_3 
REMARK    2  A    between atoms: C_4  and  C_5 
REMARK    3  A    between atoms: C_5  and  O_6 
REMARK    4  A    between atoms: N_8  and  C_9 
REMARK    5  A    between atoms: C_11  and  O_12 
REMARK    6  A    between atoms: O_12  and  C_13 
REMARK    7  A    between atoms: C_13  and  C_15 
REMARK    8  A    between atoms: C_19  and  C_20 
REMARK       I    between atoms: C_20  and  N_22 
REMARK    9  A    between atoms: N_22  and  C_23 
ROOT
ATOM      1  C   UNL d   1     -26.667  23.387  23.593  0.00  0.00     0.197 A 
ATOM      2  N   UNL d   1     -25.815  22.936  22.685  0.00  0.00    -0.201 NA
ATOM      3  C   UNL d   1     -24.594  23.428  22.572  0.00  0.00     0.183 A 
ATOM      4  C   UNL d   1     -24.159  24.456  23.424  0.00  0.00     0.088 A 
ATOM      5  C   UNL d   1     -25.038  24.948  24.398  0.00  0.00     0.068 A 
ATOM      6  C   UNL d   1     -26.306  24.406  24.473  0.00  0.00     0.165 A 
ATOM      7  F   UNL d   1     -27.186  24.856  25.395  0.00  0.00    -0.202 F 
ENDROOT
BRANCH   4   8
ATOM      8  C   UNL d   1     -22.798  25.004  23.298  0.00  0.00     0.260 C 
ATOM      9  O   UNL d   1     -22.613  26.039  22.688  0.00  0.00    -0.267 OA
ATOM     10  N   UNL d   1     -21.757  24.361  23.865  0.00  0.00    -0.319 N 
ATOM     11  H   UNL d   1     -21.912  23.575  24.412  0.00  0.00     0.169 HD
BRANCH  10  12
ATOM     12  C   UNL d   1     -20.456  24.824  23.662  0.00  0.00     0.099 A 
ATOM     13  C   UNL d   1     -19.871  25.729  24.547  0.00  0.00     0.081 A 
ATOM     14  C   UNL d   1     -18.581  26.162  24.310  0.00  0.00     0.142 A 
ATOM     15 CL   UNL d   1     -20.753  26.303  25.927  0.00  0.00    -0.080 Cl
ATOM     16  N   UNL d   1     -17.904  25.731  23.263  0.00  0.00    -0.268 NA
ATOM     17  C   UNL d   1     -18.421  24.874  22.401  0.00  0.00     0.161 A 
ATOM     18  C   UNL d   1     -19.703  24.388  22.570  0.00  0.00     0.162 A 
ATOM     19  F   UNL d   1     -20.223  23.507  21.687  0.00  0.00    -0.202 F 
ENDBRANCH  10  12
ENDBRANCH   4   8
BRANCH   3  20
ATOM     20  O   UNL d   1     -23.755  22.937  21.629  0.00  0.00    -0.319 OA
BRANCH  20  21
ATOM     21  C   UNL d   1     -23.908  23.440  20.300  0.00  0.00     0.234 C 
ATOM     22  C   UNL d   1     -22.547  23.888  19.764  0.00  0.00     0.049 C 
BRANCH  21  23
ATOM     23  C   UNL d   1     -24.473  22.339  19.400  0.00  0.00     0.413 C 
ATOM     24  F   UNL d   1     -25.735  21.957  19.867  0.00  0.00    -0.168 F 
ATOM     25  F   UNL d   1     -24.586  22.819  18.091  0.00  0.00    -0.168 F 
ATOM     26  F   UNL d   1     -23.615  21.234  19.420  0.00  0.00    -0.168 F 
ENDBRANCH  21  23
ENDBRANCH  20  21
ENDBRANCH   3  20
BRANCH   1  27
ATOM     27  N   UNL d   1     -27.942  22.835  23.669  0.00  0.00    -0.159 N 
ATOM     28  N   UNL d   1     -28.978  23.005  22.739  0.00  0.00    -0.145 NA
ATOM     29  C   UNL d   1     -30.006  22.337  23.154  0.00  0.00     0.154 A 
ATOM     30  N   UNL d   1     -29.689  21.730  24.345  0.00  0.00    -0.283 N 
ATOM     31  C   UNL d   1     -28.415  22.044  24.654  0.00  0.00     0.352 A 
ATOM     32  O   UNL d   1     -27.803  21.679  25.642  0.00  0.00    -0.244 OA
BRANCH  29  33
ATOM     33  C   UNL d   1     -31.334  22.244  22.449  0.00  0.00     0.244 C 
BRANCH  33  34
ATOM     34  O   UNL d   1     -31.129  22.301  21.036  0.00  0.00    -0.393 OA
ATOM     35  H   UNL d   1     -31.621  21.632  20.540  0.00  0.00     0.209 HD
ENDBRANCH  33  34
ENDBRANCH  29  33
BRANCH  30  36
ATOM     36  C   UNL d   1     -30.583  20.889  25.143  0.00  0.00     0.131 C 
ATOM     37  C   UNL d   1     -31.643  21.763  25.816  0.00  0.00     0.027 C 
ENDBRANCH  30  36
ENDBRANCH   1  27
TORSDOF 9
ENDMDL
