MODEL 1
REMARK VINA RESULT:     -12.6      0.000      0.000
REMARK  7 active torsions:
REMARK  status: ('A' for Active; 'I' for Inactive)
REMARK    1  A    between atoms: C_2  and  O_3 
REMARK    2  A    between atoms: C_2  and  C_4 
REMARK    3  A    between atoms: C_11  and  C_12 
REMARK    4  A    between atoms: C_15  and  C_16 
REMARK    5  A    between atoms: C_20  and  O_21 
REMARK    6  A    between atoms: O_21  and  C_22 
REMARK    7  A    between atoms: C_22  and  C_23 
ROOT
ATOM      1  C   UNL d   1     -27.522  22.352  23.247  0.00  0.00     0.010 A 
ATOM      2  C   UNL d   1     -26.861  21.703  22.202  0.00  0.00     0.016 A 
ATOM      3  C   UNL d   1     -25.579  22.074  21.861  0.00  0.00     0.013 A 
ATOM      4  C   UNL d   1     -24.942  23.100  22.559  0.00  0.00    -0.026 A 
ATOM      5  C   UNL d   1     -25.601  23.750  23.603  0.00  0.00     0.013 A 
ATOM      6  C   UNL d   1     -26.882  23.378  23.945  0.00  0.00     0.016 A 
ENDROOT
BRANCH   1   7
ATOM      7  C   UNL d   1     -28.895  21.953  23.614  0.00  0.00     0.139 A 
ATOM      8  N   UNL d   1     -29.257  21.374  24.799  0.00  0.00    -0.338 N 
ATOM      9  C   UNL d   1     -30.622  21.162  24.747  0.00  0.00     0.064 A 
ATOM     10  H   UNL d   1     -28.668  21.154  25.537  0.00  0.00     0.167 HD
ATOM     11  C   UNL d   1     -31.544  20.619  25.627  0.00  0.00     0.032 A 
ATOM     12  C   UNL d   1     -31.043  21.637  23.491  0.00  0.00     0.102 A 
ATOM     13  C   UNL d   1     -32.879  20.543  25.278  0.00  0.00     0.003 A 
ATOM     14  C   UNL d   1     -33.314  21.003  24.049  0.00  0.00     0.021 A 
ATOM     15  C   UNL d   1     -32.410  21.553  23.143  0.00  0.00     0.068 A 
ATOM     16  N   UNL d   1     -29.956  22.107  22.855  0.00  0.00    -0.227 NA
BRANCH  15  17
ATOM     17  C   UNL d   1     -32.874  22.043  21.835  0.00  0.00     0.178 C 
ATOM     18  O   UNL d   1     -34.010  22.457  21.709  0.00  0.00    -0.646 OA
BRANCH  17  19
ATOM     19  O   UNL d   1     -32.039  22.034  20.776  0.00  0.00    -0.773 OA
ATOM     20  H   UNL d   1     -32.441  22.116  19.900  0.00  0.00     0.167 HD
ENDBRANCH  17  19
ENDBRANCH  15  17
ENDBRANCH   1   7
BRANCH   4  21
ATOM     21  C   UNL d   1     -23.562  23.501  22.190  0.00  0.00    -0.023 A 
ATOM     22  C   UNL d   1     -22.556  23.510  23.154  0.00  0.00     0.049 A 
ATOM     23  C   UNL d   1     -21.268  23.880  22.802  0.00  0.00     0.070 A 
ATOM     24  C   UNL d   1     -20.986  24.251  21.494  0.00  0.00     0.037 A 
ATOM     25  C   UNL d   1     -21.985  24.247  20.539  0.00  0.00     0.004 A 
ATOM     26  C   UNL d   1     -23.270  23.875  20.879  0.00  0.00     0.012 A 
BRANCH  23  27
ATOM     27  O   UNL d   1     -20.283  23.885  23.738  0.00  0.00    -0.347 OA
BRANCH  27  28
ATOM     28  C   UNL d   1     -19.519  25.086  23.869  0.00  0.00     0.214 C 
BRANCH  28  29
ATOM     29  C   UNL d   1     -20.234  26.038  24.791  0.00  0.00    -0.034 A 
ATOM     30  C   UNL d   1     -21.286  26.800  24.318  0.00  0.00     0.009 A 
ATOM     31  C   UNL d   1     -21.942  27.673  25.165  0.00  0.00     0.001 A 
ATOM     32  C   UNL d   1     -21.547  27.786  26.485  0.00  0.00     0.000 A 
ATOM     33  C   UNL d   1     -20.495  27.024  26.958  0.00  0.00     0.001 A 
ATOM     34  C   UNL d   1     -19.841  26.146  26.113  0.00  0.00     0.009 A 
ENDBRANCH  28  29
ENDBRANCH  27  28
ENDBRANCH  23  27
ENDBRANCH   4  21
TORSDOF 7
ENDMDL
