MODEL 1
REMARK VINA RESULT:     -11.4      0.000      0.000
REMARK  5 active torsions:
REMARK  status: ('A' for Active; 'I' for Inactive)
REMARK       I    between atoms: C_2  and  N_4 
REMARK    1  A    between atoms: N_4  and  C_5 
REMARK    2  A    between atoms: C_7  and  C_8 
REMARK    3  A    between atoms: C_11  and  C_12 
REMARK    4  A    between atoms: C_12  and  O_14 
REMARK    5  A    between atoms: C_24  and  C_25 
ROOT
ATOM      1  C   UNL d   1     -24.464  24.018  23.288  0.00  0.00     0.046 A 
ATOM      2  C   UNL d   1     -25.802  23.751  23.526  0.00  0.00     0.045 A 
ATOM      3  C   UNL d   1     -26.476  22.816  22.741  0.00  0.00     0.012 A 
ATOM      4  C   UNL d   1     -25.804  22.157  21.708  0.00  0.00     0.016 A 
ATOM      5  C   UNL d   1     -24.477  22.425  21.465  0.00  0.00     0.015 A 
ATOM      6  C   UNL d   1     -23.796  23.354  22.251  0.00  0.00     0.001 A 
ENDROOT
BRANCH   3   7
ATOM      7  C   UNL d   1     -27.902  22.526  22.998  0.00  0.00     0.139 A 
ATOM      8  N   UNL d   1     -28.912  22.677  22.088  0.00  0.00    -0.338 N 
ATOM      9  C   UNL d   1     -30.084  22.303  22.719  0.00  0.00     0.064 A 
ATOM     10  H   UNL d   1     -28.824  22.988  21.174  0.00  0.00     0.167 HD
ATOM     11  C   UNL d   1     -29.723  21.929  24.026  0.00  0.00     0.102 A 
ATOM     12  C   UNL d   1     -31.411  22.243  22.322  0.00  0.00     0.038 A 
ATOM     13  N   UNL d   1     -28.391  22.085  24.134  0.00  0.00    -0.227 NA
ATOM     14  C   UNL d   1     -30.724  21.493  24.922  0.00  0.00     0.069 A 
ATOM     15  C   UNL d   1     -32.049  21.442  24.495  0.00  0.00     0.027 A 
ATOM     16  C   UNL d   1     -32.383  21.819  23.208  0.00  0.00    -0.059 A 
ATOM     17  C   UNL d   1     -33.823  21.763  22.766  0.00  0.00     0.048 C 
BRANCH  14  18
ATOM     18  C   UNL d   1     -30.370  21.097  26.295  0.00  0.00     0.178 C 
ATOM     19  O   UNL d   1     -30.840  20.085  26.777  0.00  0.00    -0.646 OA
BRANCH  18  20
ATOM     20  O   UNL d   1     -29.523  21.857  27.018  0.00  0.00    -0.773 OA
ATOM     21  H   UNL d   1     -29.733  22.798  27.090  0.00  0.00     0.167 HD
ENDBRANCH  18  20
ENDBRANCH  14  18
ENDBRANCH   3   7
BRANCH   1  22
ATOM     22  N   UNL d   1     -23.784  24.949  24.077  0.00  0.00    -0.327 N 
ATOM     23  C   UNL d   1     -23.533  26.183  23.596  0.00  0.00     0.218 C 
ATOM     24  C   UNL d   1     -22.711  27.154  24.404  0.00  0.00     0.117 C 
ATOM     25  O   UNL d   1     -23.969  26.513  22.513  0.00  0.00    -0.274 OA
ATOM     26  H   UNL d   1     -23.492  24.708  24.969  0.00  0.00     0.169 HD
ENDBRANCH   1  22
BRANCH   6  27
ATOM     27  C   UNL d   1     -22.366  23.642  21.988  0.00  0.00    -0.024 A 
ATOM     28  C   UNL d   1     -21.401  23.316  22.939  0.00  0.00     0.012 A 
ATOM     29  C   UNL d   1     -20.071  23.586  22.689  0.00  0.00     0.001 A 
ATOM     30  C   UNL d   1     -19.694  24.179  21.498  0.00  0.00     0.000 A 
ATOM     31  C   UNL d   1     -20.648  24.505  20.550  0.00  0.00     0.001 A 
ATOM     32  C   UNL d   1     -21.981  24.235  20.786  0.00  0.00     0.012 A 
ENDBRANCH   6  27
TORSDOF 5
ENDMDL
