MODEL 1
REMARK VINA RESULT:     -13.0      0.000      0.000
REMARK  3 active torsions:
REMARK  status: ('A' for Active; 'I' for Inactive)
REMARK    1  A    between atoms: C_4  and  C_5 
REMARK       I    between atoms: C_5  and  N_6 
REMARK    2  A    between atoms: C_10  and  C_11 
REMARK    3  A    between atoms: C_16  and  C_17 
ROOT
ATOM      1  C   UNL d   1     -34.108  21.625  22.994  0.00  0.00     0.048 C 
ATOM      2  C   UNL d   1     -32.657  21.645  23.399  0.00  0.00    -0.059 A 
ATOM      3  C   UNL d   1     -32.281  21.123  24.623  0.00  0.00     0.026 A 
ATOM      4  C   UNL d   1     -30.945  21.139  25.015  0.00  0.00     0.063 A 
ATOM      5  C   UNL d   1     -29.973  21.683  24.146  0.00  0.00     0.101 A 
ATOM      6  N   UNL d   1     -28.640  21.835  24.233  0.00  0.00    -0.227 NA
ATOM      7  C   UNL d   1     -28.187  22.409  23.141  0.00  0.00     0.145 A 
ATOM      8  N   UNL d   1     -29.226  22.659  22.287  0.00  0.00    -0.338 N 
ATOM      9  H   UNL d   1     -29.166  23.075  21.412  0.00  0.00     0.167 HD
ATOM     10  C   UNL d   1     -30.376  22.205  22.904  0.00  0.00     0.064 A 
ATOM     11  C   UNL d   1     -31.715  22.182  22.543  0.00  0.00     0.038 A 
ENDROOT
BRANCH   7  12
ATOM     12  C   UNL d   1     -26.771  22.735  22.877  0.00  0.00     0.093 A 
ATOM     13  C   UNL d   1     -26.155  23.788  23.564  0.00  0.00     0.173 A 
ATOM     14  C   UNL d   1     -24.830  24.091  23.315  0.00  0.00     0.170 A 
ATOM     15  F   UNL d   1     -26.855  24.506  24.468  0.00  0.00    -0.202 F 
ATOM     16  C   UNL d   1     -24.107  23.349  22.381  0.00  0.00     0.058 A 
ATOM     17  F   UNL d   1     -24.236  25.106  23.979  0.00  0.00    -0.202 F 
ATOM     18  C   UNL d   1     -24.721  22.298  21.695  0.00  0.00     0.170 A 
ATOM     19  C   UNL d   1     -26.044  21.989  21.945  0.00  0.00     0.173 A 
ATOM     20  F   UNL d   1     -24.018  21.581  20.791  0.00  0.00    -0.202 F 
ATOM     21  F   UNL d   1     -26.636  20.969  21.285  0.00  0.00    -0.202 F 
BRANCH  16  22
ATOM     22  C   UNL d   1     -22.686  23.675  22.116  0.00  0.00    -0.020 A 
ATOM     23  C   UNL d   1     -22.323  24.315  20.932  0.00  0.00     0.012 A 
ATOM     24  C   UNL d   1     -20.998  24.616  20.690  0.00  0.00     0.001 A 
ATOM     25  C   UNL d   1     -20.030  24.283  21.621  0.00  0.00     0.000 A 
ATOM     26  C   UNL d   1     -20.383  23.647  22.797  0.00  0.00     0.001 A 
ATOM     27  C   UNL d   1     -21.706  23.347  23.052  0.00  0.00     0.012 A 
ENDBRANCH  16  22
ENDBRANCH   7  12
BRANCH   4  28
ATOM     28  C   UNL d   1     -30.547  20.585  26.321  0.00  0.00     0.251 C 
ATOM     29  N   UNL d   1     -30.651  19.262  26.551  0.00  0.00    -0.366 N 
ATOM     30  H   UNL d   1     -30.389  18.897  27.412  0.00  0.00     0.159 HD
ATOM     31  H   UNL d   1     -30.991  18.674  25.859  0.00  0.00     0.159 HD
ATOM     32  O   UNL d   1     -30.125  21.323  27.192  0.00  0.00    -0.268 OA
ENDBRANCH   4  28
TORSDOF 3
ENDMDL
