MODEL 1
REMARK VINA RESULT:     -10.7      0.000      0.000
REMARK  7 active torsions:
REMARK  status: ('A' for Active; 'I' for Inactive)
REMARK    1  A    between atoms: N_4  and  C_5 
REMARK    2  A    between atoms: C_7  and  O_8 
REMARK    3  A    between atoms: O_8  and  C_9 
REMARK    4  A    between atoms: C_9  and  C_11 
REMARK    5  A    between atoms: C_15  and  C_16 
REMARK       I    between atoms: C_16  and  N_18 
REMARK    6  A    between atoms: N_18  and  C_19 
REMARK    7  A    between atoms: N_32  and  C_33 
ROOT
ATOM      1  C   UNL d   1     -26.744  23.468  24.001  0.00  0.00     0.104 A 
ATOM      2  C   UNL d   1     -25.867  22.898  23.089  0.00  0.00     0.073 A 
ATOM      3  C   UNL d   1     -24.609  23.444  22.902  0.00  0.00     0.087 A 
ATOM      4  C   UNL d   1     -24.223  24.574  23.638  0.00  0.00     0.068 A 
ATOM      5  C   UNL d   1     -25.113  25.142  24.556  0.00  0.00     0.064 A 
ATOM      6  C   UNL d   1     -26.363  24.591  24.733  0.00  0.00     0.146 A 
ATOM      7  F   UNL d   1     -27.224  25.144  25.616  0.00  0.00    -0.204 F 
ENDROOT
BRANCH   1   8
ATOM      8  N   UNL d   1     -28.013  22.914  24.185  0.00  0.00    -0.178 N 
ATOM      9  N   UNL d   1     -29.042  22.861  23.235  0.00  0.00    -0.149 NA
ATOM     10  C   UNL d   1     -30.061  22.274  23.776  0.00  0.00     0.127 A 
ATOM     11  C   UNL d   1     -31.382  22.009  23.101  0.00  0.00     0.093 C 
ATOM     12  N   UNL d   1     -29.739  21.930  25.066  0.00  0.00    -0.280 N 
ATOM     13  C   UNL d   1     -28.473  22.323  25.308  0.00  0.00     0.351 A 
ATOM     14  O   UNL d   1     -27.858  22.175  26.347  0.00  0.00    -0.244 OA
BRANCH  12  15
ATOM     15  C   UNL d   1     -30.621  21.247  26.016  0.00  0.00     0.096 C 
ATOM     16  C   UNL d   1     -32.069  21.256  25.493  0.00  0.00     0.026 C 
ATOM     17  C   UNL d   1     -32.485  19.781  25.326  0.00  0.00     0.002 C 
ATOM     18  C   UNL d   1     -31.555  19.010  26.294  0.00  0.00     0.002 C 
ATOM     19  C   UNL d   1     -30.210  19.766  26.149  0.00  0.00     0.026 C 
ENDBRANCH  12  15
ENDBRANCH   1   8
BRANCH   3  20
ATOM     20  O   UNL d   1     -23.751  22.888  22.009  0.00  0.00    -0.336 OA
BRANCH  20  21
ATOM     21  C   UNL d   1     -23.968  23.185  20.628  0.00  0.00     0.232 C 
ATOM     22  C   UNL d   1     -22.643  23.591  19.980  0.00  0.00     0.049 C 
BRANCH  21  23
ATOM     23  C   UNL d   1     -24.524  21.947  19.923  0.00  0.00     0.413 C 
ATOM     24  F   UNL d   1     -23.915  21.810  18.671  0.00  0.00    -0.168 F 
ATOM     25  F   UNL d   1     -24.261  20.812  20.696  0.00  0.00    -0.168 F 
ATOM     26  F   UNL d   1     -25.906  22.087  19.755  0.00  0.00    -0.168 F 
ENDBRANCH  21  23
ENDBRANCH  20  21
ENDBRANCH   3  20
BRANCH   4  27
ATOM     27  C   UNL d   1     -22.886  25.161  23.445  0.00  0.00     0.259 C 
ATOM     28  O   UNL d   1     -22.751  26.145  22.743  0.00  0.00    -0.267 OA
ATOM     29  N   UNL d   1     -21.814  24.608  24.047  0.00  0.00    -0.319 N 
ATOM     30  H   UNL d   1     -21.916  23.797  24.568  0.00  0.00     0.169 HD
BRANCH  29  31
ATOM     31  C   UNL d   1     -20.554  25.205  23.918  0.00  0.00     0.096 A 
ATOM     32  C   UNL d   1     -20.151  26.181  24.820  0.00  0.00     0.064 A 
ATOM     33  C   UNL d   1     -18.903  26.764  24.694  0.00  0.00     0.026 A 
ATOM     34 CL   UNL d   1     -21.209  26.664  26.109  0.00  0.00    -0.082 Cl
ATOM     35  C   UNL d   1     -18.062  26.385  23.664  0.00  0.00     0.005 A 
ATOM     36  C   UNL d   1     -18.462  25.417  22.761  0.00  0.00     0.045 A 
ATOM     37  C   UNL d   1     -19.706  24.825  22.884  0.00  0.00     0.144 A 
ATOM     38  F   UNL d   1     -20.096  23.881  22.000  0.00  0.00    -0.204 F 
ENDBRANCH  29  31
ENDBRANCH   4  27
TORSDOF 7
ENDMDL
