MODEL 1
REMARK VINA RESULT:     -11.2      0.000      0.000
REMARK  2 active torsions:
REMARK  status: ('A' for Active; 'I' for Inactive)
REMARK    1  A    between atoms: N_16  and  C_17 
REMARK    2  A    between atoms: C_21  and  C_22 
ROOT
ATOM      1  O   UNL d   1     -24.235  22.762  18.450  0.00  0.00    -0.285 OA
ATOM      2  C   UNL d   1     -24.145  22.994  19.639  0.00  0.00     0.216 A 
ATOM      3  C   UNL d   1     -25.172  22.487  20.575  0.00  0.00     0.034 A 
ATOM      4  C   UNL d   1     -26.246  21.741  20.104  0.00  0.00     0.058 A 
ATOM      5  C   UNL d   1     -27.203  21.271  20.992  0.00  0.00     0.117 A 
ATOM      6  F   UNL d   1     -28.246  20.545  20.534  0.00  0.00    -0.206 F 
ATOM      7  C   UNL d   1     -27.093  21.539  22.347  0.00  0.00     0.043 A 
ATOM      8  C   UNL d   1     -26.029  22.281  22.829  0.00  0.00     0.019 A 
ATOM      9  C   UNL d   1     -25.061  22.759  21.950  0.00  0.00     0.031 A 
ATOM     10  C   UNL d   1     -23.919  23.552  22.455  0.00  0.00     0.214 A 
ATOM     11  O   UNL d   1     -23.820  23.791  23.643  0.00  0.00    -0.285 OA
ATOM     12  C   UNL d   1     -22.905  24.051  21.516  0.00  0.00     0.146 A 
ATOM     13  C   UNL d   1     -23.011  23.783  20.155  0.00  0.00     0.164 A 
ATOM     14  N   UNL d   1     -21.949  24.365  19.582  0.00  0.00    -0.125 NA
ATOM     15  N   UNL d   1     -21.247  24.947  20.490  0.00  0.00    -0.059 NA
ATOM     16  N   UNL d   1     -21.767  24.787  21.657  0.00  0.00    -0.209 N 
ENDROOT
BRANCH  16  17
ATOM     17  C   UNL d   1     -21.257  25.286  22.859  0.00  0.00     0.066 A 
ATOM     18  C   UNL d   1     -20.130  24.703  23.429  0.00  0.00     0.075 A 
ATOM     19  C   UNL d   1     -19.622  25.198  24.614  0.00  0.00     0.132 A 
ATOM     20  C   UNL d   1     -20.246  26.276  25.244  0.00  0.00     0.054 A 
ATOM     21  F   UNL d   1     -18.525  24.635  25.165  0.00  0.00    -0.205 F 
ATOM     22  C   UNL d   1     -21.377  26.859  24.668  0.00  0.00     0.132 A 
ATOM     23  C   UNL d   1     -21.877  26.363  23.480  0.00  0.00     0.075 A 
ATOM     24  F   UNL d   1     -21.980  27.906  25.272  0.00  0.00    -0.205 F 
BRANCH  20  25
ATOM     25  C   UNL d   1     -19.706  26.806  26.520  0.00  0.00     0.019 A 
ATOM     26  C   UNL d   1     -18.624  27.688  26.510  0.00  0.00     0.127 A 
ATOM     27  C   UNL d   1     -18.129  28.181  27.703  0.00  0.00     0.043 A 
ATOM     28  F   UNL d   1     -18.066  28.063  25.338  0.00  0.00    -0.205 F 
ATOM     29  C   UNL d   1     -18.701  27.799  28.902  0.00  0.00     0.003 A 
ATOM     30  C   UNL d   1     -19.769  26.920  28.917  0.00  0.00     0.001 A 
ATOM     31  C   UNL d   1     -20.273  26.420  27.733  0.00  0.00     0.015 A 
ENDBRANCH  20  25
ENDBRANCH  16  17
TORSDOF 2
ENDMDL
