MODEL 1
REMARK VINA RESULT:     -12.6      0.000      0.000
REMARK  7 active torsions:
REMARK  status: ('A' for Active; 'I' for Inactive)
REMARK    1  A    between atoms: C_5  and  C_6 
REMARK    2  A    between atoms: C_6  and  O_8 
REMARK    3  A    between atoms: C_10  and  C_11 
REMARK    4  A    between atoms: C_14  and  C_15 
REMARK    5  A    between atoms: C_19  and  O_20 
REMARK    6  A    between atoms: O_20  and  C_21 
REMARK    7  A    between atoms: C_21  and  C_22 
ROOT
ATOM      1  C   UNL d   1     -27.035  22.669  22.965  0.00  0.00    -0.026 A 
ATOM      2  C   UNL d   1     -26.317  22.000  21.974  0.00  0.00     0.013 A 
ATOM      3  C   UNL d   1     -24.992  22.308  21.757  0.00  0.00     0.013 A 
ATOM      4  C   UNL d   1     -24.366  23.281  22.535  0.00  0.00    -0.026 A 
ATOM      5  C   UNL d   1     -25.082  23.947  23.530  0.00  0.00     0.013 A 
ATOM      6  C   UNL d   1     -26.408  23.642  23.743  0.00  0.00     0.013 A 
ENDROOT
BRANCH   1   7
ATOM      7  C   UNL d   1     -28.463  22.342  23.195  0.00  0.00    -0.023 A 
ATOM      8  C   UNL d   1     -28.883  21.916  24.454  0.00  0.00     0.033 A 
ATOM      9  C   UNL d   1     -30.220  21.607  24.679  0.00  0.00     0.069 A 
ATOM     10  C   UNL d   1     -31.150  21.728  23.623  0.00  0.00     0.102 A 
ATOM     11  N   UNL d   1     -32.476  21.509  23.528  0.00  0.00    -0.233 NA
ATOM     12  C   UNL d   1     -30.712  22.159  22.359  0.00  0.00     0.064 A 
ATOM     13  C   UNL d   1     -32.884  21.776  22.320  0.00  0.00     0.101 A 
ATOM     14  C   UNL d   1     -34.307  21.654  21.841  0.00  0.00     0.091 C 
ATOM     15  N   UNL d   1     -31.835  22.175  21.553  0.00  0.00    -0.343 N 
ATOM     16  H   UNL d   1     -31.869  22.428  20.617  0.00  0.00     0.167 HD
ATOM     17  C   UNL d   1     -29.377  22.463  22.151  0.00  0.00     0.044 A 
BRANCH   9  18
ATOM     18  C   UNL d   1     -30.662  21.155  26.009  0.00  0.00     0.178 C 
ATOM     19  O   UNL d   1     -30.186  21.655  27.009  0.00  0.00    -0.646 OA
BRANCH  18  20
ATOM     20  O   UNL d   1     -31.594  20.188  26.117  0.00  0.00    -0.773 OA
ATOM     21  H   UNL d   1     -32.307  20.334  26.753  0.00  0.00     0.167 HD
ENDBRANCH  18  20
ENDBRANCH   9  18
ENDBRANCH   1   7
BRANCH   4  22
ATOM     22  C   UNL d   1     -22.937  23.607  22.305  0.00  0.00    -0.023 A 
ATOM     23  C   UNL d   1     -22.052  23.666  23.378  0.00  0.00     0.049 A 
ATOM     24  C   UNL d   1     -20.718  23.965  23.155  0.00  0.00     0.070 A 
ATOM     25  C   UNL d   1     -20.269  24.216  21.866  0.00  0.00     0.037 A 
ATOM     26  C   UNL d   1     -21.148  24.164  20.801  0.00  0.00     0.004 A 
ATOM     27  C   UNL d   1     -22.478  23.861  21.012  0.00  0.00     0.012 A 
BRANCH  24  28
ATOM     28  O   UNL d   1     -19.850  24.018  24.200  0.00  0.00    -0.347 OA
BRANCH  28  29
ATOM     29  C   UNL d   1     -19.132  25.240  24.384  0.00  0.00     0.214 C 
BRANCH  29  30
ATOM     30  C   UNL d   1     -19.970  26.199  25.189  0.00  0.00    -0.034 A 
ATOM     31  C   UNL d   1     -19.674  26.426  26.520  0.00  0.00     0.009 A 
ATOM     32  C   UNL d   1     -20.443  27.307  27.258  0.00  0.00     0.001 A 
ATOM     33  C   UNL d   1     -21.508  27.960  26.665  0.00  0.00     0.000 A 
ATOM     34  C   UNL d   1     -21.803  27.733  25.334  0.00  0.00     0.001 A 
ATOM     35  C   UNL d   1     -21.031  26.857  24.594  0.00  0.00     0.009 A 
ENDBRANCH  29  30
ENDBRANCH  28  29
ENDBRANCH  24  28
ENDBRANCH   4  22
TORSDOF 7
ENDMDL
