MODEL 1
REMARK VINA RESULT:      -9.6      0.000      0.000
REMARK  9 active torsions:
REMARK  status: ('A' for Active; 'I' for Inactive)
REMARK    1  A    between atoms: C_2  and  N_3 
REMARK    2  A    between atoms: C_4  and  C_5 
REMARK    3  A    between atoms: C_5  and  O_6 
REMARK    4  A    between atoms: N_8  and  C_9 
REMARK    5  A    between atoms: C_11  and  O_12 
REMARK    6  A    between atoms: O_12  and  C_13 
REMARK    7  A    between atoms: C_13  and  C_15 
REMARK    8  A    between atoms: C_19  and  C_20 
REMARK       I    between atoms: C_20  and  N_22 
REMARK    9  A    between atoms: N_22  and  C_23 
ROOT
ATOM      1  C   UNL d   1     -26.566  23.586  23.736  0.00  0.00     0.197 A 
ATOM      2  N   UNL d   1     -25.659  23.132  22.885  0.00  0.00    -0.201 NA
ATOM      3  C   UNL d   1     -24.456  23.670  22.796  0.00  0.00     0.183 A 
ATOM      4  C   UNL d   1     -24.096  24.748  23.621  0.00  0.00     0.088 A 
ATOM      5  C   UNL d   1     -25.036  25.247  24.535  0.00  0.00     0.068 A 
ATOM      6  C   UNL d   1     -26.281  24.654  24.587  0.00  0.00     0.165 A 
ATOM      7  F   UNL d   1     -27.215  25.105  25.454  0.00  0.00    -0.202 F 
ENDROOT
BRANCH   4   8
ATOM      8  C   UNL d   1     -22.753  25.344  23.525  0.00  0.00     0.260 C 
ATOM      9  O   UNL d   1     -22.583  26.360  22.879  0.00  0.00    -0.267 OA
ATOM     10  N   UNL d   1     -21.712  24.763  24.154  0.00  0.00    -0.320 N 
ATOM     11  H   UNL d   1     -21.860  23.995  24.728  0.00  0.00     0.169 HD
BRANCH  10  12
ATOM     12  C   UNL d   1     -20.419  25.267  23.978  0.00  0.00     0.081 A 
ATOM     13  C   UNL d   1     -19.591  24.753  22.990  0.00  0.00     0.058 A 
ATOM     14  N   UNL d   1     -18.372  25.225  22.820  0.00  0.00    -0.264 NA
ATOM     15  C   UNL d   1     -20.091  23.642  22.102  0.00  0.00     0.073 C 
ATOM     16  C   UNL d   1     -17.892  26.196  23.572  0.00  0.00     0.118 A 
ATOM     17  C   UNL d   1     -18.654  26.760  24.577  0.00  0.00     0.045 A 
ATOM     18  C   UNL d   1     -19.944  26.297  24.788  0.00  0.00     0.064 A 
ATOM     19 CL   UNL d   1     -20.941  26.981  26.035  0.00  0.00    -0.082 Cl
ENDBRANCH  10  12
ENDBRANCH   4   8
BRANCH   3  20
ATOM     20  O   UNL d   1     -23.561  23.174  21.908  0.00  0.00    -0.319 OA
BRANCH  20  21
ATOM     21  C   UNL d   1     -23.867  23.336  20.521  0.00  0.00     0.234 C 
ATOM     22  C   UNL d   1     -22.596  23.718  19.760  0.00  0.00     0.049 C 
BRANCH  21  23
ATOM     23  C   UNL d   1     -24.421  22.022  19.965  0.00  0.00     0.413 C 
ATOM     24  F   UNL d   1     -25.793  22.157  19.731  0.00  0.00    -0.168 F 
ATOM     25  F   UNL d   1     -23.770  21.713  18.766  0.00  0.00    -0.168 F 
ATOM     26  F   UNL d   1     -24.203  20.997  20.892  0.00  0.00    -0.168 F 
ENDBRANCH  21  23
ENDBRANCH  20  21
ENDBRANCH   3  20
BRANCH   1  27
ATOM     27  N   UNL d   1     -27.822  22.987  23.787  0.00  0.00    -0.159 N 
ATOM     28  N   UNL d   1     -28.843  23.113  22.834  0.00  0.00    -0.145 NA
ATOM     29  C   UNL d   1     -29.852  22.405  23.230  0.00  0.00     0.154 A 
ATOM     30  N   UNL d   1     -29.537  21.816  24.430  0.00  0.00    -0.283 N 
ATOM     31  C   UNL d   1     -28.282  22.178  24.764  0.00  0.00     0.352 A 
ATOM     32  O   UNL d   1     -27.676  21.836  25.764  0.00  0.00    -0.244 OA
BRANCH  29  33
ATOM     33  C   UNL d   1     -31.160  22.257  22.495  0.00  0.00     0.244 C 
BRANCH  33  34
ATOM     34  O   UNL d   1     -30.928  22.347  21.088  0.00  0.00    -0.393 OA
ATOM     35  H   UNL d   1     -30.441  21.596  20.722  0.00  0.00     0.209 HD
ENDBRANCH  33  34
ENDBRANCH  29  33
BRANCH  30  36
ATOM     36  C   UNL d   1     -30.414  20.940  25.211  0.00  0.00     0.131 C 
ATOM     37  C   UNL d   1     -31.573  21.757  25.784  0.00  0.00     0.027 C 
ENDBRANCH  30  36
ENDBRANCH   1  27
TORSDOF 9
ENDMDL
