MODEL 1
REMARK VINA RESULT:     -10.6      0.000      0.000
REMARK  8 active torsions:
REMARK  status: ('A' for Active; 'I' for Inactive)
REMARK    1  A    between atoms: N_4  and  C_5 
REMARK    2  A    between atoms: C_7  and  O_8 
REMARK    3  A    between atoms: O_8  and  C_9 
REMARK    4  A    between atoms: C_9  and  C_11 
REMARK    5  A    between atoms: C_15  and  C_16 
REMARK       I    between atoms: C_16  and  N_18 
REMARK    6  A    between atoms: N_18  and  C_19 
REMARK    7  A    between atoms: N_32  and  C_33 
REMARK    8  A    between atoms: C_33  and  C_34 
ROOT
ATOM      1  C   UNL d   1     -24.884  23.144  22.294  0.00  0.00     0.104 A 
ATOM      2  C   UNL d   1     -25.611  23.584  23.392  0.00  0.00     0.073 A 
ATOM      3  C   UNL d   1     -26.928  23.191  23.552  0.00  0.00     0.087 A 
ATOM      4  C   UNL d   1     -27.521  22.337  22.611  0.00  0.00     0.068 A 
ATOM      5  C   UNL d   1     -26.779  21.893  21.511  0.00  0.00     0.064 A 
ATOM      6  C   UNL d   1     -25.471  22.295  21.356  0.00  0.00     0.146 A 
ATOM      7  F   UNL d   1     -24.754  21.866  20.295  0.00  0.00    -0.204 F 
ENDROOT
BRANCH   1   8
ATOM      8  N   UNL d   1     -23.557  23.548  22.132  0.00  0.00    -0.178 N 
ATOM      9  N   UNL d   1     -22.996  24.118  20.980  0.00  0.00    -0.149 NA
ATOM     10  C   UNL d   1     -21.746  24.357  21.216  0.00  0.00     0.127 A 
ATOM     11  C   UNL d   1     -20.770  24.968  20.244  0.00  0.00     0.093 C 
ATOM     12  N   UNL d   1     -21.454  23.961  22.499  0.00  0.00    -0.280 N 
ATOM     13  C   UNL d   1     -22.577  23.465  23.056  0.00  0.00     0.351 A 
ATOM     14  O   UNL d   1     -22.686  23.021  24.185  0.00  0.00    -0.244 OA
BRANCH  12  15
ATOM     15  C   UNL d   1     -20.146  24.062  23.150  0.00  0.00     0.173 C 
BRANCH  15  16
ATOM     16  C   UNL d   1     -20.139  25.248  24.082  0.00  0.00    -0.040 A 
ATOM     17  C   UNL d   1     -19.081  25.439  24.950  0.00  0.00     0.009 A 
ATOM     18  C   UNL d   1     -19.074  26.526  25.803  0.00  0.00     0.001 A 
ATOM     19  C   UNL d   1     -20.127  27.421  25.790  0.00  0.00     0.000 A 
ATOM     20  C   UNL d   1     -21.186  27.231  24.922  0.00  0.00     0.001 A 
ATOM     21  C   UNL d   1     -21.190  26.147  24.065  0.00  0.00     0.009 A 
ENDBRANCH  15  16
ENDBRANCH  12  15
ENDBRANCH   1   8
BRANCH   3  22
ATOM     22  O   UNL d   1     -27.642  23.626  24.622  0.00  0.00    -0.336 OA
BRANCH  22  23
ATOM     23  C   UNL d   1     -26.995  23.583  25.894  0.00  0.00     0.232 C 
ATOM     24  C   UNL d   1     -27.141  24.939  26.587  0.00  0.00     0.049 C 
BRANCH  23  25
ATOM     25  C   UNL d   1     -27.638  22.497  26.758  0.00  0.00     0.413 C 
ATOM     26  F   UNL d   1     -26.648  21.629  27.230  0.00  0.00    -0.168 F 
ATOM     27  F   UNL d   1     -28.294  23.090  27.842  0.00  0.00    -0.168 F 
ATOM     28  F   UNL d   1     -28.561  21.778  25.992  0.00  0.00    -0.168 F 
ENDBRANCH  23  25
ENDBRANCH  22  23
ENDBRANCH   3  22
BRANCH   4  29
ATOM     29  C   UNL d   1     -28.921  21.908  22.779  0.00  0.00     0.259 C 
ATOM     30  O   UNL d   1     -29.170  20.851  23.328  0.00  0.00    -0.267 OA
ATOM     31  N   UNL d   1     -29.923  22.685  22.324  0.00  0.00    -0.318 N 
ATOM     32  H   UNL d   1     -29.726  23.550  21.930  0.00  0.00     0.169 HD
BRANCH  31  33
ATOM     33  C   UNL d   1     -31.250  22.245  22.421  0.00  0.00     0.113 A 
ATOM     34  C   UNL d   1     -31.966  21.934  21.271  0.00  0.00     0.146 A 
ATOM     35  C   UNL d   1     -33.275  21.499  21.371  0.00  0.00     0.045 A 
ATOM     36  F   UNL d   1     -31.385  22.056  20.058  0.00  0.00    -0.204 F 
ATOM     37  C   UNL d   1     -33.872  21.374  22.612  0.00  0.00     0.006 A 
ATOM     38  C   UNL d   1     -33.162  21.682  23.759  0.00  0.00     0.045 A 
ATOM     39  C   UNL d   1     -31.850  22.112  23.667  0.00  0.00     0.146 A 
ATOM     40  F   UNL d   1     -31.157  22.409  24.788  0.00  0.00    -0.204 F 
ENDBRANCH  31  33
ENDBRANCH   4  29
TORSDOF 8
ENDMDL
