MODEL 1
REMARK VINA RESULT:      -9.0      0.000      0.000
REMARK  4 active torsions:
REMARK  status: ('A' for Active; 'I' for Inactive)
REMARK    1  A    between atoms: C_4  and  O_5 
REMARK    2  A    between atoms: C_8  and  S_9 
REMARK    3  A    between atoms: S_9  and  C_10 
REMARK    4  A    between atoms: C_10  and  C_11 
ROOT
ATOM      1  C   UNL d   1     -33.846  21.070  22.919  0.00  0.00     0.071 C 
ATOM      2  C   UNL d   1     -32.491  21.288  23.542  0.00  0.00     0.054 A 
ATOM      3  C   UNL d   1     -32.200  20.724  24.783  0.00  0.00     0.085 A 
ATOM      4  C   UNL d   1     -30.966  20.931  25.337  0.00  0.00     0.184 A 
ATOM      5  N   UNL d   1     -30.057  21.683  24.656  0.00  0.00    -0.035 N 
ATOM      6  N   UNL d   1     -28.741  22.079  24.930  0.00  0.00    -0.122 NA
ATOM      7  C   UNL d   1     -28.338  22.808  23.910  0.00  0.00     0.227 A 
ATOM      8  N   UNL d   1     -29.321  22.901  23.015  0.00  0.00    -0.033 NA
ATOM      9  C   UNL d   1     -30.379  22.220  23.442  0.00  0.00     0.754 A 
ATOM     10  N   UNL d   1     -31.589  22.011  22.910  0.00  0.00    -0.066 NA
ENDROOT
BRANCH   7  11
ATOM     11  S   UNL d   1     -26.748  23.552  23.756  0.00  0.00    -0.083 SA
BRANCH  11  12
ATOM     12  C   UNL d   1     -25.685  22.155  23.300  0.00  0.00     0.124 C 
BRANCH  12  13
ATOM     13  C   UNL d   1     -25.008  22.446  21.986  0.00  0.00    -0.005 A 
ATOM     14  C   UNL d   1     -25.582  22.021  20.802  0.00  0.00     0.042 A 
ATOM     15  C   UNL d   1     -24.960  22.289  19.596  0.00  0.00     0.024 A 
ATOM     16 CL   UNL d   1     -27.084  21.150  20.829  0.00  0.00    -0.084 Cl
ATOM     17  C   UNL d   1     -23.764  22.981  19.573  0.00  0.00     0.003 A 
ATOM     18  C   UNL d   1     -23.189  23.406  20.756  0.00  0.00     0.024 A 
ATOM     19  C   UNL d   1     -23.813  23.145  21.963  0.00  0.00     0.042 A 
ATOM     20 CL   UNL d   1     -23.095  23.685  23.448  0.00  0.00    -0.084 Cl
ENDBRANCH  12  13
ENDBRANCH  11  12
ENDBRANCH   7  11
BRANCH   4  21
ATOM     21  O   UNL d   1     -30.653  20.397  26.540  0.00  0.00    -0.344 OA
ATOM     22  H   UNL d   1     -31.364  19.877  26.935  0.00  0.00     0.219 HD
ENDBRANCH   4  21
TORSDOF 4
ENDMDL
