MODEL 1
REMARK VINA RESULT:      -9.4      0.000      0.000
REMARK  7 active torsions:
REMARK  status: ('A' for Active; 'I' for Inactive)
REMARK    1  A    between atoms: C_2  and  C_3 
REMARK    2  A    between atoms: C_3  and  C_4 
REMARK    3  A    between atoms: C_4  and  O_6 
REMARK    4  A    between atoms: O_6  and  C_7 
REMARK    5  A    between atoms: C_9  and  N_10 
REMARK    6  A    between atoms: C_23  and  C_24 
REMARK       I    between atoms: C_24  and  N_26 
REMARK    7  A    between atoms: N_26  and  C_27 
ROOT
ATOM      1  C   UNL d   1     -24.464  23.710  23.046  0.00  0.00     0.087 A 
ATOM      2  C   UNL d   1     -25.658  23.051  23.284  0.00  0.00     0.073 A 
ATOM      3  C   UNL d   1     -26.596  23.602  24.143  0.00  0.00     0.104 A 
ATOM      4  C   UNL d   1     -26.343  24.822  24.772  0.00  0.00     0.146 A 
ATOM      5  F   UNL d   1     -27.262  25.353  25.608  0.00  0.00    -0.204 F 
ATOM      6  C   UNL d   1     -25.159  25.485  24.543  0.00  0.00     0.064 A 
ATOM      7  C   UNL d   1     -24.207  24.936  23.676  0.00  0.00     0.068 A 
ENDROOT
BRANCH   7   8
ATOM      8  C   UNL d   1     -22.939  25.644  23.427  0.00  0.00     0.254 C 
ATOM      9  O   UNL d   1     -22.914  26.602  22.680  0.00  0.00    -0.268 OA
ATOM     10  N   UNL d   1     -21.807  25.230  24.031  0.00  0.00    -0.352 N 
ATOM     11  H   UNL d   1     -21.827  24.465  24.627  0.00  0.00     0.163 HD
BRANCH  10  12
ATOM     12  C   UNL d   1     -20.546  25.934  23.784  0.00  0.00     0.095 C 
ATOM     13  C   UNL d   1     -20.042  26.560  25.086  0.00  0.00     0.128 C 
ATOM     14  C   UNL d   1     -18.630  27.039  24.910  0.00  0.00     0.221 C 
ATOM     15  N   UNL d   1     -17.834  26.637  23.918  0.00  0.00    -0.356 N 
ATOM     16  O   UNL d   1     -18.190  27.836  25.711  0.00  0.00    -0.273 OA
ATOM     17  C   UNL d   1     -18.246  25.723  22.860  0.00  0.00     0.127 C 
ATOM     18  C   UNL d   1     -16.461  27.147  23.889  0.00  0.00     0.152 C 
ATOM     19  C   UNL d   1     -19.490  24.941  23.281  0.00  0.00     0.045 C 
ENDBRANCH  10  12
ENDBRANCH   7   8
BRANCH   1  20
ATOM     20  O   UNL d   1     -23.545  23.172  22.205  0.00  0.00    -0.345 OA
BRANCH  20  21
ATOM     21  C   UNL d   1     -23.708  23.435  20.810  0.00  0.00     0.124 C 
ATOM     22  C   UNL d   1     -22.399  23.982  20.238  0.00  0.00     0.040 C 
BRANCH  21  23
ATOM     23  C   UNL d   1     -24.080  22.140  20.086  0.00  0.00     0.032 C 
BRANCH  23  24
ATOM     24  C   UNL d   1     -25.548  22.195  19.662  0.00  0.00    -0.002 C 
ATOM     25  C   UNL d   1     -26.405  21.455  20.691  0.00  0.00     0.005 C 
ENDBRANCH  23  24
ENDBRANCH  21  23
ENDBRANCH  20  21
ENDBRANCH   1  20
BRANCH   3  26
ATOM     26  N   UNL d   1     -27.802  22.937  24.378  0.00  0.00    -0.178 N 
ATOM     27  C   UNL d   1     -28.110  22.196  25.465  0.00  0.00     0.351 A 
ATOM     28  N   UNL d   1     -29.370  21.757  25.307  0.00  0.00    -0.284 N 
ATOM     29  O   UNL d   1     -27.380  21.968  26.412  0.00  0.00    -0.244 OA
ATOM     30  C   UNL d   1     -29.836  22.204  24.087  0.00  0.00     0.131 A 
ATOM     31  C   UNL d   1     -30.163  20.963  26.252  0.00  0.00     0.135 C 
ATOM     32  N   UNL d   1     -28.920  22.919  23.529  0.00  0.00    -0.149 NA
ATOM     33  C   UNL d   1     -31.202  21.866  23.537  0.00  0.00     0.081 C 
ATOM     34  C   UNL d   1     -32.080  21.394  24.703  0.00  0.00     0.009 C 
ATOM     35  C   UNL d   1     -31.327  20.317  25.492  0.00  0.00     0.021 C 
ENDBRANCH   3  26
TORSDOF 7
ENDMDL
