MODEL 1
REMARK VINA RESULT:      -9.5      0.000      0.000
REMARK  7 active torsions:
REMARK  status: ('A' for Active; 'I' for Inactive)
REMARK    1  A    between atoms: C_2  and  C_4 
REMARK    2  A    between atoms: N_6  and  C_7 
REMARK    3  A    between atoms: C_12  and  O_13 
REMARK    4  A    between atoms: C_23  and  N_24 
REMARK    5  A    between atoms: C_26  and  C_27 
REMARK    6  A    between atoms: C_27  and  O_28 
REMARK    7  A    between atoms: N_29  and  C_30 
ROOT
ATOM      1  C   UNL d   1     -25.815  24.191  23.754  0.00  0.00    -0.004 A 
ATOM      2  C   UNL d   1     -24.527  24.414  23.386  0.00  0.00     0.113 A 
ATOM      3  N   UNL d   1     -23.967  23.808  22.300  0.00  0.00    -0.283 N 
ATOM      4  C   UNL d   1     -24.651  22.952  21.518  0.00  0.00     0.263 A 
ATOM      5  O   UNL d   1     -24.111  22.434  20.558  0.00  0.00    -0.267 OA
ATOM      6  C   UNL d   1     -26.049  22.644  21.832  0.00  0.00     0.047 A 
ATOM      7  C   UNL d   1     -26.801  21.761  21.053  0.00  0.00     0.062 A 
ATOM      8  C   UNL d   1     -28.103  21.506  21.384  0.00  0.00     0.146 A 
ATOM      9  F   UNL d   1     -28.828  20.652  20.630  0.00  0.00    -0.204 F 
ATOM     10  C   UNL d   1     -28.691  22.117  22.495  0.00  0.00     0.103 A 
ATOM     11  C   UNL d   1     -27.965  23.000  23.278  0.00  0.00     0.048 A 
ATOM     12  C   UNL d   1     -26.638  23.266  22.956  0.00  0.00    -0.006 A 
ENDROOT
BRANCH  10  13
ATOM     13  N   UNL d   1     -30.023  21.842  22.813  0.00  0.00    -0.178 N 
ATOM     14  C   UNL d   1     -31.093  22.031  22.014  0.00  0.00     0.351 A 
ATOM     15  N   UNL d   1     -32.185  21.640  22.700  0.00  0.00    -0.283 N 
ATOM     16  O   UNL d   1     -31.076  22.474  20.879  0.00  0.00    -0.244 OA
ATOM     17  C   UNL d   1     -31.784  21.209  23.941  0.00  0.00     0.154 A 
ATOM     18  N   UNL d   1     -30.496  21.318  24.024  0.00  0.00    -0.147 NA
BRANCH  15  19
ATOM     19  C   UNL d   1     -33.565  21.674  22.210  0.00  0.00     0.131 C 
ATOM     20  C   UNL d   1     -33.919  20.322  21.588  0.00  0.00     0.027 C 
ENDBRANCH  15  19
BRANCH  17  21
ATOM     21  C   UNL d   1     -32.692  20.692  25.026  0.00  0.00     0.244 C 
BRANCH  21  22
ATOM     22  O   UNL d   1     -32.028  20.785  26.288  0.00  0.00    -0.393 OA
ATOM     23  H   UNL d   1     -31.762  19.931  26.657  0.00  0.00     0.209 HD
ENDBRANCH  21  22
ENDBRANCH  17  21
ENDBRANCH  10  13
BRANCH   1  24
ATOM     24  C   UNL d   1     -26.382  24.865  24.937  0.00  0.00    -0.059 C 
ATOM     25  C   UNL d   1     -26.246  26.178  25.081  0.00  0.00     0.019 C 
ATOM     26  C   UNL d   1     -27.115  24.065  25.982  0.00  0.00     0.048 C 
ENDBRANCH   1  24
BRANCH   3  27
ATOM     27  C   UNL d   1     -22.631  24.090  21.985  0.00  0.00     0.105 A 
ATOM     28  C   UNL d   1     -21.636  23.889  22.932  0.00  0.00     0.097 A 
ATOM     29  C   UNL d   1     -20.315  24.169  22.616  0.00  0.00     0.092 A 
ATOM     30 CL   UNL d   1     -22.045  23.290  24.509  0.00  0.00    -0.079 Cl
ATOM     31  C   UNL d   1     -19.990  24.647  21.356  0.00  0.00     0.041 A 
ATOM     32  C   UNL d   1     -20.981  24.847  20.412  0.00  0.00     0.047 A 
ATOM     33  C   UNL d   1     -22.298  24.565  20.720  0.00  0.00     0.145 A 
ATOM     34  F   UNL d   1     -23.264  24.756  19.794  0.00  0.00    -0.204 F 
BRANCH  29  35
ATOM     35  O   UNL d   1     -19.338  23.973  23.542  0.00  0.00    -0.354 OA
ATOM     36  C   UNL d   1     -18.987  25.090  24.360  0.00  0.00     0.210 C 
ENDBRANCH  29  35
ENDBRANCH   3  27
TORSDOF 7
ENDMDL
