MODEL 1
REMARK VINA RESULT:      -9.0      0.000      0.000
REMARK  10 active torsions:
REMARK  status: ('A' for Active; 'I' for Inactive)
REMARK    1  A    between atoms: C_2  and  C_3 
REMARK    2  A    between atoms: C_3  and  C_4 
REMARK    3  A    between atoms: C_4  and  O_6 
REMARK    4  A    between atoms: O_6  and  C_7 
REMARK    5  A    between atoms: C_9  and  N_10 
REMARK    6  A    between atoms: C_12  and  C_13 
REMARK    7  A    between atoms: C_13  and  O_15 
REMARK    8  A    between atoms: C_23  and  C_24 
REMARK       I    between atoms: C_24  and  N_26 
REMARK    9  A    between atoms: N_26  and  C_27 
REMARK   10  A    between atoms: C_33  and  O_34 
ROOT
ATOM      1  C   UNL d   1     -24.174  23.715  22.825  0.00  0.00     0.087 A 
ATOM      2  C   UNL d   1     -25.418  23.118  22.922  0.00  0.00     0.073 A 
ATOM      3  C   UNL d   1     -26.356  23.606  23.821  0.00  0.00     0.104 A 
ATOM      4  C   UNL d   1     -26.052  24.705  24.625  0.00  0.00     0.146 A 
ATOM      5  F   UNL d   1     -26.971  25.179  25.494  0.00  0.00    -0.204 F 
ATOM      6  C   UNL d   1     -24.814  25.303  24.540  0.00  0.00     0.064 A 
ATOM      7  C   UNL d   1     -23.863  24.816  23.636  0.00  0.00     0.068 A 
ENDROOT
BRANCH   7   8
ATOM      8  C   UNL d   1     -22.541  25.459  23.539  0.00  0.00     0.259 C 
ATOM      9  O   UNL d   1     -22.422  26.518  22.953  0.00  0.00    -0.267 OA
ATOM     10  N   UNL d   1     -21.465  24.874  24.098  0.00  0.00    -0.319 N 
ATOM     11  H   UNL d   1     -21.542  23.991  24.493  0.00  0.00     0.169 HD
BRANCH  10  12
ATOM     12  C   UNL d   1     -20.233  25.540  24.111  0.00  0.00     0.094 A 
ATOM     13  C   UNL d   1     -19.941  26.471  25.107  0.00  0.00     0.191 A 
ATOM     14  N   UNL d   1     -18.778  27.098  25.122  0.00  0.00    -0.235 NA
ATOM     15  C   UNL d   1     -17.859  26.878  24.199  0.00  0.00     0.120 A 
ATOM     16  C   UNL d   1     -18.080  25.974  23.180  0.00  0.00     0.028 A 
ATOM     17  C   UNL d   1     -19.285  25.290  23.125  0.00  0.00    -0.029 A 
ATOM     18  C   UNL d   1     -19.560  24.297  22.026  0.00  0.00     0.050 C 
BRANCH  13  19
ATOM     19  O   UNL d   1     -20.859  26.733  26.073  0.00  0.00    -0.338 OA
ATOM     20  C   UNL d   1     -21.478  28.020  26.048  0.00  0.00     0.211 C 
ENDBRANCH  13  19
ENDBRANCH  10  12
ENDBRANCH   7   8
BRANCH   1  21
ATOM     21  O   UNL d   1     -23.257  23.238  21.945  0.00  0.00    -0.345 OA
BRANCH  21  22
ATOM     22  C   UNL d   1     -23.420  23.606  20.575  0.00  0.00     0.124 C 
ATOM     23  C   UNL d   1     -22.134  24.262  20.067  0.00  0.00     0.040 C 
BRANCH  22  24
ATOM     24  C   UNL d   1     -23.718  22.357  19.743  0.00  0.00     0.032 C 
BRANCH  24  25
ATOM     25  C   UNL d   1     -25.187  22.368  19.315  0.00  0.00    -0.002 C 
ATOM     26  C   UNL d   1     -26.026  21.620  20.353  0.00  0.00     0.005 C 
ENDBRANCH  24  25
ENDBRANCH  22  24
ENDBRANCH  21  22
ENDBRANCH   1  21
BRANCH   3  27
ATOM     27  N   UNL d   1     -27.611  23.001  23.916  0.00  0.00    -0.178 N 
ATOM     28  C   UNL d   1     -28.085  22.304  24.970  0.00  0.00     0.351 A 
ATOM     29  N   UNL d   1     -29.329  21.892  24.654  0.00  0.00    -0.286 N 
ATOM     30  O   UNL d   1     -27.497  22.088  26.014  0.00  0.00    -0.244 OA
ATOM     31  C   UNL d   1     -29.626  22.341  23.391  0.00  0.00     0.159 A 
ATOM     32  C   UNL d   1     -30.214  21.101  25.512  0.00  0.00     0.163 C 
ATOM     33  N   UNL d   1     -28.609  23.001  22.933  0.00  0.00    -0.146 NA
BRANCH  31  34
ATOM     34  C   UNL d   1     -30.919  22.100  22.655  0.00  0.00     0.185 C 
ATOM     35  C   UNL d   1     -30.713  22.364  21.162  0.00  0.00     0.048 C 
BRANCH  34  36
ATOM     36  O   UNL d   1     -31.925  22.981  23.160  0.00  0.00    -0.388 OA
ATOM     37  H   UNL d   1     -31.688  23.412  23.993  0.00  0.00     0.210 HD
ENDBRANCH  34  36
ENDBRANCH  31  34
ENDBRANCH   3  27
TORSDOF 10
ENDMDL
