MODEL 1
REMARK VINA RESULT:      -9.9      0.000      0.000
REMARK  9 active torsions:
REMARK  status: ('A' for Active; 'I' for Inactive)
REMARK    1  A    between atoms: C_2  and  N_3 
REMARK    2  A    between atoms: C_4  and  C_5 
REMARK    3  A    between atoms: C_5  and  O_6 
REMARK    4  A    between atoms: N_8  and  C_9 
REMARK    5  A    between atoms: C_11  and  O_12 
REMARK    6  A    between atoms: O_12  and  C_13 
REMARK    7  A    between atoms: C_13  and  C_15 
REMARK    8  A    between atoms: C_19  and  C_20 
REMARK       I    between atoms: C_20  and  N_22 
REMARK    9  A    between atoms: N_22  and  C_23 
ROOT
ATOM      1  C   UNL d   1     -26.566  23.536  23.746  0.00  0.00     0.197 A 
ATOM      2  N   UNL d   1     -25.677  23.060  22.888  0.00  0.00    -0.201 NA
ATOM      3  C   UNL d   1     -24.468  23.581  22.778  0.00  0.00     0.183 A 
ATOM      4  C   UNL d   1     -24.085  24.668  23.578  0.00  0.00     0.088 A 
ATOM      5  C   UNL d   1     -25.004  25.190  24.500  0.00  0.00     0.068 A 
ATOM      6  C   UNL d   1     -26.258  24.615  24.575  0.00  0.00     0.165 A 
ATOM      7  F   UNL d   1     -27.176  25.090  25.446  0.00  0.00    -0.202 F 
ENDROOT
BRANCH   4   8
ATOM      8  C   UNL d   1     -22.737  25.249  23.457  0.00  0.00     0.260 C 
ATOM      9  O   UNL d   1     -22.558  26.230  22.760  0.00  0.00    -0.267 OA
ATOM     10  N   UNL d   1     -21.702  24.695  24.119  0.00  0.00    -0.320 N 
ATOM     11  H   UNL d   1     -21.829  23.871  24.615  0.00  0.00     0.169 HD
BRANCH  10  12
ATOM     12  C   UNL d   1     -20.444  25.307  24.088  0.00  0.00     0.082 A 
ATOM     13  C   UNL d   1     -19.506  24.942  23.127  0.00  0.00     0.152 A 
ATOM     14  N   UNL d   1     -18.318  25.513  23.099  0.00  0.00    -0.246 NA
ATOM     15 CL   UNL d   1     -19.902  23.719  21.960  0.00  0.00    -0.060 Cl
ATOM     16  C   UNL d   1     -17.974  26.445  23.966  0.00  0.00     0.119 A 
ATOM     17  C   UNL d   1     -18.854  26.865  24.946  0.00  0.00     0.028 A 
ATOM     18  C   UNL d   1     -20.114  26.293  25.012  0.00  0.00    -0.031 A 
ATOM     19  C   UNL d   1     -21.101  26.723  26.067  0.00  0.00     0.050 C 
ENDBRANCH  10  12
ENDBRANCH   4   8
BRANCH   3  20
ATOM     20  O   UNL d   1     -23.591  23.061  21.887  0.00  0.00    -0.319 OA
BRANCH  20  21
ATOM     21  C   UNL d   1     -23.864  23.282  20.501  0.00  0.00     0.234 C 
ATOM     22  C   UNL d   1     -22.564  23.633  19.774  0.00  0.00     0.049 C 
BRANCH  21  23
ATOM     23  C   UNL d   1     -24.464  22.013  19.891  0.00  0.00     0.413 C 
ATOM     24  F   UNL d   1     -23.877  21.775  18.643  0.00  0.00    -0.168 F 
ATOM     25  F   UNL d   1     -24.218  20.928  20.738  0.00  0.00    -0.168 F 
ATOM     26  F   UNL d   1     -25.844  22.179  19.734  0.00  0.00    -0.168 F 
ENDBRANCH  21  23
ENDBRANCH  20  21
ENDBRANCH   3  20
BRANCH   1  27
ATOM     27  N   UNL d   1     -27.827  22.952  23.823  0.00  0.00    -0.159 N 
ATOM     28  N   UNL d   1     -28.862  23.081  22.886  0.00  0.00    -0.145 NA
ATOM     29  C   UNL d   1     -29.874  22.391  23.305  0.00  0.00     0.154 A 
ATOM     30  N   UNL d   1     -29.547  21.809  24.504  0.00  0.00    -0.283 N 
ATOM     31  C   UNL d   1     -28.283  22.160  24.816  0.00  0.00     0.352 A 
ATOM     32  O   UNL d   1     -27.665  21.824  25.810  0.00  0.00    -0.244 OA
BRANCH  29  33
ATOM     33  C   UNL d   1     -31.196  22.255  22.595  0.00  0.00     0.244 C 
BRANCH  33  34
ATOM     34  O   UNL d   1     -30.990  22.337  21.184  0.00  0.00    -0.393 OA
ATOM     35  H   UNL d   1     -30.925  21.477  20.745  0.00  0.00     0.209 HD
ENDBRANCH  33  34
ENDBRANCH  29  33
BRANCH  30  36
ATOM     36  C   UNL d   1     -30.421  20.952  25.309  0.00  0.00     0.131 C 
ATOM     37  C   UNL d   1     -31.623  21.765  25.796  0.00  0.00     0.027 C 
ENDBRANCH  30  36
ENDBRANCH   1  27
TORSDOF 9
ENDMDL
