MODEL 1
REMARK VINA RESULT:     -11.7      0.000      0.000
REMARK  4 active torsions:
REMARK  status: ('A' for Active; 'I' for Inactive)
REMARK    1  A    between atoms: C_2  and  O_3 
REMARK    2  A    between atoms: C_2  and  C_4 
REMARK    3  A    between atoms: C_10  and  C_11 
REMARK    4  A    between atoms: C_14  and  C_15 
ROOT
ATOM      1  C   UNL d   1     -31.663  21.814  23.135  0.00  0.00     0.066 A 
ATOM      2  C   UNL d   1     -32.539  21.399  24.139  0.00  0.00     0.021 A 
ATOM      3  C   UNL d   1     -32.069  21.147  25.415  0.00  0.00     0.003 A 
ATOM      4  C   UNL d   1     -30.734  21.310  25.718  0.00  0.00     0.034 A 
ATOM      5  C   UNL d   1     -29.836  21.730  24.732  0.00  0.00     0.087 A 
ATOM      6  N   UNL d   1     -28.502  21.972  24.732  0.00  0.00    -0.228 NA
ATOM      7  C   UNL d   1     -28.126  22.351  23.534  0.00  0.00     0.139 A 
ATOM      8  N   UNL d   1     -29.209  22.373  22.695  0.00  0.00    -0.338 N 
ATOM      9  H   UNL d   1     -29.205  22.617  21.757  0.00  0.00     0.167 HD
ATOM     10  C   UNL d   1     -30.304  21.983  23.432  0.00  0.00     0.080 A 
ENDROOT
BRANCH   7  11
ATOM     11  C   UNL d   1     -26.743  22.701  23.148  0.00  0.00     0.010 A 
ATOM     12  C   UNL d   1     -26.090  23.764  23.776  0.00  0.00     0.016 A 
ATOM     13  C   UNL d   1     -24.802  24.089  23.415  0.00  0.00     0.013 A 
ATOM     14  C   UNL d   1     -24.149  23.357  22.423  0.00  0.00    -0.020 A 
ATOM     15  C   UNL d   1     -24.801  22.295  21.796  0.00  0.00     0.013 A 
ATOM     16  C   UNL d   1     -26.087  21.965  22.159  0.00  0.00     0.016 A 
BRANCH  14  17
ATOM     17  C   UNL d   1     -22.762  23.708  22.036  0.00  0.00     0.051 A 
ATOM     18  C   UNL d   1     -21.697  23.398  22.884  0.00  0.00     0.130 A 
ATOM     19  C   UNL d   1     -20.406  23.728  22.516  0.00  0.00     0.043 A 
ATOM     20  F   UNL d   1     -21.928  22.778  24.062  0.00  0.00    -0.205 F 
ATOM     21  C   UNL d   1     -20.168  24.364  21.311  0.00  0.00     0.006 A 
ATOM     22  C   UNL d   1     -21.219  24.673  20.466  0.00  0.00     0.043 A 
ATOM     23  C   UNL d   1     -22.514  24.344  20.818  0.00  0.00     0.130 A 
ATOM     24  F   UNL d   1     -23.538  24.642  19.989  0.00  0.00    -0.205 F 
ENDBRANCH  14  17
ENDBRANCH   7  11
BRANCH   1  25
ATOM     25  C   UNL d   1     -32.165  22.076  21.774  0.00  0.00     0.178 C 
ATOM     26  O   UNL d   1     -33.361  22.135  21.569  0.00  0.00    -0.646 OA
BRANCH  25  27
ATOM     27  O   UNL d   1     -31.298  22.245  20.756  0.00  0.00    -0.773 OA
ATOM     28  H   UNL d   1     -30.749  23.041  20.774  0.00  0.00     0.167 HD
ENDBRANCH  25  27
ENDBRANCH   1  25
TORSDOF 4
ENDMDL
