MODEL 1
REMARK VINA RESULT:      -9.8      0.000      0.000
REMARK  4 active torsions:
REMARK  status: ('A' for Active; 'I' for Inactive)
REMARK       I    between atoms: C_2  and  N_3 
REMARK    1  A    between atoms: C_2  and  C_13 
REMARK    2  A    between atoms: N_3  and  C_4 
REMARK    3  A    between atoms: C_9  and  C_10 
REMARK    4  A    between atoms: C_10  and  O_12 
ROOT
ATOM      1  O   UNL d   1     -25.366  24.903  23.621  0.00  0.00    -0.267 OA
ATOM      2  C   UNL d   1     -25.524  23.699  23.565  0.00  0.00     0.256 C 
ATOM      3  N   UNL d   1     -24.546  22.914  23.075  0.00  0.00    -0.322 N 
ATOM      4  H   UNL d   1     -24.696  21.961  22.969  0.00  0.00     0.169 HD
ENDROOT
BRANCH   2   5
ATOM      5  C   UNL d   1     -26.790  23.098  24.036  0.00  0.00     0.033 A 
ATOM      6  C   UNL d   1     -27.888  23.061  23.194  0.00  0.00     0.029 A 
ATOM      7  C   UNL d   1     -29.085  22.484  23.646  0.00  0.00    -0.025 A 
ATOM      8  C   UNL d   1     -29.154  21.959  24.961  0.00  0.00    -0.026 A 
ATOM      9  C   UNL d   1     -30.220  22.422  22.819  0.00  0.00     0.012 A 
ATOM     10  C   UNL d   1     -28.022  22.017  25.795  0.00  0.00     0.013 A 
ATOM     11  C   UNL d   1     -30.355  21.388  25.412  0.00  0.00     0.012 A 
ATOM     12  C   UNL d   1     -26.870  22.574  25.339  0.00  0.00     0.018 A 
ATOM     13  C   UNL d   1     -31.435  21.346  24.583  0.00  0.00     0.001 A 
ATOM     14  C   UNL d   1     -31.367  21.862  23.290  0.00  0.00     0.001 A 
ENDBRANCH   2   5
BRANCH   3  15
ATOM     15  C   UNL d   1     -23.323  23.469  22.713  0.00  0.00     0.051 A 
ATOM     16  C   UNL d   1     -22.968  23.572  21.359  0.00  0.00     0.064 A 
ATOM     17  C   UNL d   1     -21.738  24.136  21.009  0.00  0.00     0.020 A 
ATOM     18  C   UNL d   1     -20.880  24.577  21.992  0.00  0.00     0.001 A 
ATOM     19  C   UNL d   1     -21.232  24.469  23.328  0.00  0.00     0.002 A 
ATOM     20  C   UNL d   1     -22.445  23.919  23.689  0.00  0.00     0.030 A 
BRANCH  16  21
ATOM     21  C   UNL d   1     -23.888  23.092  20.313  0.00  0.00     0.178 C 
ATOM     22  O   UNL d   1     -24.423  22.007  20.425  0.00  0.00    -0.646 OA
BRANCH  21  23
ATOM     23  O   UNL d   1     -24.138  23.858  19.232  0.00  0.00    -0.773 OA
ATOM     24  H   UNL d   1     -24.496  24.742  19.394  0.00  0.00     0.167 HD
ENDBRANCH  21  23
ENDBRANCH  16  21
ENDBRANCH   3  15
TORSDOF 4
ENDMDL
