MODEL 1
REMARK VINA RESULT:     -12.8      0.000      0.000
REMARK  4 active torsions:
REMARK  status: ('A' for Active; 'I' for Inactive)
REMARK    1  A    between atoms: O_2  and  C_3 
REMARK    2  A    between atoms: C_3  and  C_5 
REMARK    3  A    between atoms: C_9  and  C_10 
REMARK    4  A    between atoms: C_13  and  N_14 
ROOT
ATOM      1  C   UNL d   1     -24.704  23.420  22.584  0.00  0.00    -0.026 A 
ATOM      2  C   UNL d   1     -25.243  24.231  23.582  0.00  0.00     0.014 A 
ATOM      3  C   UNL d   1     -26.376  23.829  24.257  0.00  0.00     0.032 A 
ATOM      4  C   UNL d   1     -26.974  22.611  23.952  0.00  0.00     0.060 A 
ATOM      5  C   UNL d   1     -26.435  21.800  22.960  0.00  0.00     0.032 A 
ATOM      6  C   UNL d   1     -25.304  22.200  22.279  0.00  0.00     0.014 A 
ENDROOT
BRANCH   4   7
ATOM      7  N   UNL d   1     -28.120  22.204  24.641  0.00  0.00    -0.209 N 
ATOM      8  C   UNL d   1     -29.363  22.055  24.107  0.00  0.00     0.146 A 
ATOM      9  C   UNL d   1     -30.174  21.639  25.158  0.00  0.00     0.164 A 
ATOM     10  C   UNL d   1     -29.924  22.241  22.761  0.00  0.00     0.214 A 
ATOM     11  N   UNL d   1     -29.377  21.566  26.231  0.00  0.00    -0.125 NA
ATOM     12  C   UNL d   1     -31.608  21.378  24.932  0.00  0.00     0.216 A 
ATOM     13  N   UNL d   1     -28.181  21.898  25.891  0.00  0.00    -0.059 NA
ATOM     14  C   UNL d   1     -32.184  21.562  23.582  0.00  0.00     0.031 A 
ATOM     15  O   UNL d   1     -32.313  21.013  25.852  0.00  0.00    -0.285 OA
ATOM     16  C   UNL d   1     -31.362  21.983  22.522  0.00  0.00     0.031 A 
ATOM     17  C   UNL d   1     -33.534  21.321  23.353  0.00  0.00     0.016 A 
ATOM     18  C   UNL d   1     -31.906  22.156  21.253  0.00  0.00     0.016 A 
ATOM     19  C   UNL d   1     -33.253  21.910  21.042  0.00  0.00     0.001 A 
ATOM     20  C   UNL d   1     -34.061  21.496  22.085  0.00  0.00     0.001 A 
ATOM     21  O   UNL d   1     -29.210  22.606  21.848  0.00  0.00    -0.285 OA
ENDBRANCH   4   7
BRANCH   1  22
ATOM     22  C   UNL d   1     -23.488  23.854  21.852  0.00  0.00    -0.025 A 
ATOM     23  C   UNL d   1     -23.492  23.899  20.458  0.00  0.00     0.012 A 
ATOM     24  C   UNL d   1     -22.364  24.308  19.773  0.00  0.00     0.002 A 
ATOM     25  C   UNL d   1     -21.224  24.669  20.464  0.00  0.00     0.017 A 
ATOM     26  C   UNL d   1     -21.206  24.623  21.859  0.00  0.00     0.040 A 
ATOM     27  C   UNL d   1     -22.342  24.211  22.555  0.00  0.00     0.030 A 
BRANCH  26  28
ATOM     28  C   UNL d   1     -19.985  25.010  22.598  0.00  0.00     0.292 C 
ATOM     29  O   UNL d   1     -18.926  24.473  22.344  0.00  0.00    -0.259 OA
BRANCH  28  30
ATOM     30  O   UNL d   1     -20.049  25.959  23.552  0.00  0.00    -0.323 OA
ATOM     31  C   UNL d   1     -19.673  25.565  24.898  0.00  0.00     0.213 C 
ENDBRANCH  28  30
ENDBRANCH  26  28
ENDBRANCH   1  22
TORSDOF 4
ENDMDL
