MODEL 1
REMARK VINA RESULT:      -9.2      0.000      0.000
REMARK  8 active torsions:
REMARK  status: ('A' for Active; 'I' for Inactive)
REMARK    1  A    between atoms: C_2  and  C_4 
REMARK    2  A    between atoms: C_4  and  C_5 
REMARK    3  A    between atoms: C_5  and  O_7 
REMARK    4  A    between atoms: O_7  and  C_8 
REMARK    5  A    between atoms: C_10  and  N_11 
REMARK    6  A    between atoms: C_13  and  C_14 
REMARK    7  A    between atoms: C_24  and  C_25 
REMARK       I    between atoms: C_25  and  N_27 
REMARK    8  A    between atoms: N_27  and  C_28 
ROOT
ATOM      1  C   UNL d   1     -26.380  22.942  23.314  0.00  0.00     0.087 A 
ATOM      2  C   UNL d   1     -27.752  22.800  23.441  0.00  0.00     0.073 A 
ATOM      3  C   UNL d   1     -28.475  22.140  22.457  0.00  0.00     0.104 A 
ATOM      4  C   UNL d   1     -27.826  21.623  21.336  0.00  0.00     0.146 A 
ATOM      5  F   UNL d   1     -28.536  20.982  20.382  0.00  0.00    -0.204 F 
ATOM      6  C   UNL d   1     -26.463  21.763  21.198  0.00  0.00     0.064 A 
ATOM      7  C   UNL d   1     -25.726  22.427  22.185  0.00  0.00     0.068 A 
ENDROOT
BRANCH   3   8
ATOM      8  N   UNL d   1     -29.858  21.993  22.590  0.00  0.00    -0.178 N 
ATOM      9  C   UNL d   1     -30.522  21.658  23.716  0.00  0.00     0.351 A 
ATOM     10  N   UNL d   1     -31.836  21.630  23.415  0.00  0.00    -0.288 N 
ATOM     11  O   UNL d   1     -30.026  21.427  24.804  0.00  0.00    -0.244 OA
ATOM     12  C   UNL d   1     -31.982  21.942  22.086  0.00  0.00     0.134 A 
ATOM     13  C   UNL d   1     -32.922  21.314  24.345  0.00  0.00     0.162 C 
ATOM     14  N   UNL d   1     -30.811  22.162  21.577  0.00  0.00    -0.149 NA
BRANCH  12  15
ATOM     15  C   UNL d   1     -33.290  22.016  21.341  0.00  0.00     0.049 C 
ATOM     16  C   UNL d   1     -33.865  20.607  21.180  0.00  0.00     0.018 C 
ATOM     17  C   UNL d   1     -34.276  22.883  22.127  0.00  0.00     0.018 C 
ENDBRANCH  12  15
ENDBRANCH   3   8
BRANCH   1  18
ATOM     18  O   UNL d   1     -25.671  23.582  24.279  0.00  0.00    -0.345 OA
BRANCH  18  19
ATOM     19  C   UNL d   1     -25.362  24.958  24.052  0.00  0.00     0.125 C 
ATOM     20  C   UNL d   1     -26.293  25.835  24.892  0.00  0.00     0.040 C 
BRANCH  19  21
ATOM     21  C   UNL d   1     -23.910  25.228  24.454  0.00  0.00     0.035 C 
BRANCH  21  22
ATOM     22  C   UNL d   1     -23.564  26.689  24.161  0.00  0.00    -0.020 C 
ATOM     23  C   UNL d   1     -22.245  27.050  24.848  0.00  0.00     0.009 C 
ATOM     24  C   UNL d   1     -23.422  26.886  22.650  0.00  0.00     0.009 C 
ENDBRANCH  21  22
ENDBRANCH  19  21
ENDBRANCH  18  19
ENDBRANCH   1  18
BRANCH   7  25
ATOM     25  C   UNL d   1     -24.269  22.580  22.041  0.00  0.00     0.260 C 
ATOM     26  O   UNL d   1     -23.536  21.629  22.236  0.00  0.00    -0.267 OA
ATOM     27  N   UNL d   1     -23.747  23.773  21.694  0.00  0.00    -0.307 N 
ATOM     28  H   UNL d   1     -24.323  24.550  21.613  0.00  0.00     0.170 HD
BRANCH  27  29
ATOM     29  C   UNL d   1     -22.385  23.891  21.451  0.00  0.00     0.133 A 
ATOM     30  N   UNL d   1     -21.941  24.235  20.246  0.00  0.00    -0.224 NA
ATOM     31  C   UNL d   1     -20.649  24.348  20.012  0.00  0.00     0.234 A 
ATOM     32  N   UNL d   1     -19.750  24.128  20.951  0.00  0.00    -0.254 NA
ATOM     33  C   UNL d   1     -20.115  23.781  22.177  0.00  0.00     0.122 A 
ATOM     34  C   UNL d   1     -21.459  23.650  22.468  0.00  0.00     0.070 A 
ENDBRANCH  27  29
ENDBRANCH   7  25
TORSDOF 8
ENDMDL
