MODEL 1
REMARK VINA RESULT:     -10.2      0.000      0.000
REMARK  4 active torsions:
REMARK  status: ('A' for Active; 'I' for Inactive)
REMARK    1  A    between atoms: C_7  and  C_8 
REMARK    2  A    between atoms: C_15  and  O_16 
REMARK    3  A    between atoms: C_17  and  C_18 
REMARK    4  A    between atoms: C_18  and  O_20 
ROOT
ATOM      1  C   UNL d   1     -34.347  21.274  22.261  0.00  0.00     0.048 C 
ATOM      2  C   UNL d   1     -32.876  21.597  22.227  0.00  0.00    -0.061 A 
ATOM      3  C   UNL d   1     -32.289  22.003  21.031  0.00  0.00     0.009 A 
ATOM      4  C   UNL d   1     -30.963  22.302  20.966  0.00  0.00     0.033 A 
ATOM      5  C   UNL d   1     -30.167  22.202  22.122  0.00  0.00     0.069 A 
ATOM      6  N   UNL d   1     -28.864  22.491  22.086  0.00  0.00    -0.245 NA
ATOM      7  C   UNL d   1     -28.092  22.409  23.146  0.00  0.00     0.102 A 
ATOM      8  C   UNL d   1     -28.585  22.002  24.405  0.00  0.00     0.113 A 
ATOM      9  C   UNL d   1     -29.938  21.686  24.536  0.00  0.00     0.085 A 
ATOM     10  C   UNL d   1     -30.770  21.789  23.335  0.00  0.00     0.013 A 
ATOM     11  C   UNL d   1     -32.136  21.488  23.367  0.00  0.00     0.021 A 
ENDROOT
BRANCH   7  12
ATOM     12  C   UNL d   1     -26.656  22.748  23.015  0.00  0.00    -0.004 A 
ATOM     13  C   UNL d   1     -26.124  23.827  23.722  0.00  0.00     0.015 A 
ATOM     14  C   UNL d   1     -24.786  24.139  23.595  0.00  0.00     0.024 A 
ATOM     15  C   UNL d   1     -23.971  23.382  22.770  0.00  0.00     0.034 A 
ATOM     16  C   UNL d   1     -24.493  22.309  22.067  0.00  0.00     0.024 A 
ATOM     17 CL   UNL d   1     -22.289  23.778  22.617  0.00  0.00    -0.084 Cl
ATOM     18  C   UNL d   1     -25.832  21.992  22.182  0.00  0.00     0.015 A 
ENDBRANCH   7  12
BRANCH   8  19
ATOM     19  O   UNL d   1     -27.756  21.924  25.473  0.00  0.00    -0.357 OA
ATOM     20  H   UNL d   1     -26.828  21.777  25.241  0.00  0.00     0.217 HD
ENDBRANCH   8  19
BRANCH   9  21
ATOM     21  C   UNL d   1     -30.504  21.262  25.828  0.00  0.00     0.180 C 
ATOM     22  O   UNL d   1     -31.277  21.988  26.421  0.00  0.00    -0.646 OA
BRANCH  21  23
ATOM     23  O   UNL d   1     -30.166  20.068  26.352  0.00  0.00    -0.773 OA
ATOM     24  H   UNL d   1     -29.590  19.502  25.820  0.00  0.00     0.167 HD
ENDBRANCH  21  23
ENDBRANCH   9  21
TORSDOF 4
ENDMDL
