MODEL 1
REMARK VINA RESULT:     -10.4      0.000      0.000
REMARK  12 active torsions:
REMARK  status: ('A' for Active; 'I' for Inactive)
REMARK    1  A    between atoms: C_2  and  C_3 
REMARK    2  A    between atoms: C_3  and  C_4 
REMARK    3  A    between atoms: C_4  and  C_5 
REMARK    4  A    between atoms: C_5  and  C_6 
REMARK    5  A    between atoms: C_6  and  N_7 
REMARK       I    between atoms: N_7  and  C_8 
REMARK    6  A    between atoms: C_8  and  C_10 
REMARK    7  A    between atoms: C_10  and  O_11 
REMARK    8  A    between atoms: O_11  and  C_12 
REMARK    9  A    between atoms: C_15  and  C_16 
REMARK   10  A    between atoms: C_18  and  C_19 
REMARK   11  A    between atoms: C_19  and  O_21 
REMARK   12  A    between atoms: C_30  and  O_31 
ROOT
ATOM      1  C   UNL d   1     -24.766  22.395  21.458  0.00  0.00     0.102 A 
ATOM      2  C   UNL d   1     -25.689  21.659  20.730  0.00  0.00     0.040 A 
ATOM      3  C   UNL d   1     -26.980  21.511  21.195  0.00  0.00     0.017 A 
ATOM      4  C   UNL d   1     -27.358  22.102  22.400  0.00  0.00    -0.004 A 
ATOM      5  C   UNL d   1     -26.431  22.842  23.133  0.00  0.00     0.053 A 
ATOM      6  C   UNL d   1     -25.141  22.992  22.660  0.00  0.00     0.102 A 
ENDROOT
BRANCH   4   7
ATOM      7  C   UNL d   1     -28.744  21.944  22.901  0.00  0.00     0.069 A 
ATOM      8  N   UNL d   1     -29.746  22.137  22.070  0.00  0.00    -0.247 NA
ATOM      9  C   UNL d   1     -31.020  22.007  22.445  0.00  0.00     0.068 A 
ATOM     10  C   UNL d   1     -31.332  21.660  23.784  0.00  0.00     0.010 A 
ATOM     11  C   UNL d   1     -32.071  22.212  21.531  0.00  0.00     0.032 A 
ATOM     12  C   UNL d   1     -30.235  21.446  24.727  0.00  0.00     0.052 A 
ATOM     13  C   UNL d   1     -32.669  21.529  24.175  0.00  0.00     0.015 A 
ATOM     14  C   UNL d   1     -28.943  21.598  24.247  0.00  0.00     0.051 A 
ATOM     15  C   UNL d   1     -33.662  21.737  23.262  0.00  0.00     0.001 A 
ATOM     16  C   UNL d   1     -33.360  22.077  21.946  0.00  0.00     0.002 A 
BRANCH  12  17
ATOM     17  C   UNL d   1     -30.494  21.082  26.137  0.00  0.00     0.177 C 
ATOM     18  O   UNL d   1     -30.223  21.862  27.026  0.00  0.00    -0.646 OA
BRANCH  17  19
ATOM     19  O   UNL d   1     -31.030  19.882  26.434  0.00  0.00    -0.773 OA
ATOM     20  H   UNL d   1     -30.555  19.335  27.075  0.00  0.00     0.167 HD
ENDBRANCH  17  19
ENDBRANCH  12  17
ENDBRANCH   4   7
BRANCH   6  21
ATOM     21  O   UNL d   1     -24.235  23.717  23.370  0.00  0.00    -0.353 OA
ATOM     22  C   UNL d   1     -24.443  25.130  23.433  0.00  0.00     0.210 C 
ENDBRANCH   6  21
BRANCH   1  23
ATOM     23  O   UNL d   1     -23.496  22.537  20.996  0.00  0.00    -0.339 OA
BRANCH  23  24
ATOM     24  C   UNL d   1     -23.303  23.419  19.888  0.00  0.00     0.278 C 
BRANCH  24  25
ATOM     25  C   UNL d   1     -22.276  24.461  20.248  0.00  0.00     0.241 C 
ATOM     26  N   UNL d   1     -21.675  24.425  21.455  0.00  0.00    -0.359 N 
ATOM     27  H   UNL d   1     -21.904  23.730  22.090  0.00  0.00     0.162 HD
ATOM     28  O   UNL d   1     -21.990  25.331  19.453  0.00  0.00    -0.271 OA
BRANCH  26  29
ATOM     29  C   UNL d   1     -20.676  25.438  21.806  0.00  0.00     0.122 C 
BRANCH  29  30
ATOM     30  C   UNL d   1     -19.848  24.947  22.993  0.00  0.00     0.020 C 
BRANCH  30  31
ATOM     31  C   UNL d   1     -19.877  25.997  24.106  0.00  0.00     0.002 C 
BRANCH  31  32
ATOM     32  C   UNL d   1     -21.227  25.942  24.824  0.00  0.00    -0.000 C 
BRANCH  32  33
ATOM     33  C   UNL d   1     -21.857  27.335  24.833  0.00  0.00    -0.005 C 
ATOM     34  C   UNL d   1     -21.423  28.084  26.095  0.00  0.00     0.005 C 
ENDBRANCH  32  33
ENDBRANCH  31  32
ENDBRANCH  30  31
ENDBRANCH  29  30
ENDBRANCH  26  29
ENDBRANCH  24  25
ENDBRANCH  23  24
ENDBRANCH   1  23
TORSDOF 12
ENDMDL
