MODEL 1
REMARK VINA RESULT:     -10.6      0.000      0.000
REMARK  6 active torsions:
REMARK  status: ('A' for Active; 'I' for Inactive)
REMARK    1  A    between atoms: C_4  and  N_5 
REMARK    2  A    between atoms: N_5  and  N_6 
REMARK    3  A    between atoms: C_7  and  C_8 
REMARK    4  A    between atoms: C_13  and  C_14 
REMARK    5  A    between atoms: C_14  and  O_16 
REMARK    6  A    between atoms: C_18  and  C_19 
ROOT
ATOM      1  N   UNL d   1     -25.329  21.095  21.527  0.00  0.00    -0.255 N 
ATOM      2  H   UNL d   1     -24.941  20.226  21.714  0.00  0.00     0.191 HD
ENDROOT
BRANCH   1   3
ATOM      3  C   UNL d   1     -24.508  22.183  21.284  0.00  0.00     0.188 A 
ATOM      4  S   UNL d   1     -23.913  22.676  19.701  0.00  0.00    -0.053 SA
ATOM      5  C   UNL d   1     -23.054  24.024  20.443  0.00  0.00     0.012 A 
ATOM      6  C   UNL d   1     -22.212  25.042  19.717  0.00  0.00     0.059 C 
ATOM      7  C   UNL d   1     -23.276  23.986  21.769  0.00  0.00     0.084 A 
ATOM      8  N   UNL d   1     -24.052  22.996  22.187  0.00  0.00    -0.222 NA
BRANCH   7   9
ATOM      9  C   UNL d   1     -22.691  24.981  22.700  0.00  0.00     0.015 A 
ATOM     10  C   UNL d   1     -21.367  24.854  23.119  0.00  0.00     0.046 A 
ATOM     11  C   UNL d   1     -20.829  25.786  23.986  0.00  0.00     0.025 A 
ATOM     12 CL   UNL d   1     -20.398  23.531  22.552  0.00  0.00    -0.083 Cl
ATOM     13  C   UNL d   1     -21.601  26.840  24.439  0.00  0.00     0.002 A 
ATOM     14  C   UNL d   1     -22.916  26.970  24.026  0.00  0.00     0.001 A 
ATOM     15  C   UNL d   1     -23.462  26.050  23.155  0.00  0.00     0.015 A 
ENDBRANCH   7   9
ENDBRANCH   1   3
BRANCH   1  16
ATOM     16  N   UNL d   1     -26.722  21.250  21.503  0.00  0.00    -0.184 NA
ATOM     17  C   UNL d   1     -27.325  21.867  22.475  0.00  0.00     0.151 C 
BRANCH  17  18
ATOM     18  C   UNL d   1     -28.786  22.030  22.450  0.00  0.00    -0.000 A 
ATOM     19  C   UNL d   1     -29.524  22.019  23.652  0.00  0.00     0.049 A 
ATOM     20  C   UNL d   1     -30.910  22.180  23.609  0.00  0.00     0.019 A 
ATOM     21  C   UNL d   1     -31.548  22.342  22.399  0.00  0.00     0.001 A 
ATOM     22  C   UNL d   1     -30.824  22.348  21.216  0.00  0.00     0.001 A 
ATOM     23  C   UNL d   1     -29.455  22.191  21.233  0.00  0.00     0.014 A 
BRANCH  19  24
ATOM     24  C   UNL d   1     -28.837  21.845  24.943  0.00  0.00     0.177 C 
ATOM     25  O   UNL d   1     -27.928  22.591  25.253  0.00  0.00    -0.646 OA
BRANCH  24  26
ATOM     26  O   UNL d   1     -29.215  20.859  25.780  0.00  0.00    -0.773 OA
ATOM     27  H   UNL d   1     -30.020  20.376  25.554  0.00  0.00     0.167 HD
ENDBRANCH  24  26
ENDBRANCH  19  24
ENDBRANCH  17  18
ENDBRANCH   1  16
TORSDOF 6
ENDMDL
