MODEL 1
REMARK VINA RESULT:     -11.6      0.000      0.000
REMARK  8 active torsions:
REMARK  status: ('A' for Active; 'I' for Inactive)
REMARK    1  A    between atoms: O_2  and  C_3 
REMARK    2  A    between atoms: C_5  and  C_6 
REMARK    3  A    between atoms: C_8  and  C_9 
REMARK    4  A    between atoms: C_9  and  O_11 
REMARK    5  A    between atoms: C_21  and  O_22 
REMARK    6  A    between atoms: O_22  and  C_23 
REMARK    7  A    between atoms: C_23  and  C_24 
REMARK       I    between atoms: C_24  and  N_26 
REMARK    8  A    between atoms: N_26  and  C_27 
ROOT
ATOM      1  C   UNL d   1     -25.626  22.888  22.800  0.00  0.00     0.102 A 
ATOM      2  C   UNL d   1     -26.966  22.792  23.124  0.00  0.00     0.053 A 
ATOM      3  C   UNL d   1     -27.821  22.031  22.326  0.00  0.00    -0.004 A 
ATOM      4  C   UNL d   1     -27.321  21.376  21.201  0.00  0.00     0.017 A 
ATOM      5  C   UNL d   1     -25.985  21.480  20.878  0.00  0.00     0.040 A 
ATOM      6  C   UNL d   1     -25.134  22.235  21.671  0.00  0.00     0.102 A 
ENDROOT
BRANCH   3   7
ATOM      7  C   UNL d   1     -29.257  21.920  22.674  0.00  0.00     0.069 A 
ATOM      8  N   UNL d   1     -30.154  22.061  21.721  0.00  0.00    -0.247 NA
ATOM      9  C   UNL d   1     -31.465  21.970  21.955  0.00  0.00     0.068 A 
ATOM     10  C   UNL d   1     -31.935  21.724  23.269  0.00  0.00     0.010 A 
ATOM     11  C   UNL d   1     -32.401  22.119  20.915  0.00  0.00     0.032 A 
ATOM     12  C   UNL d   1     -30.955  21.568  24.347  0.00  0.00     0.052 A 
ATOM     13  C   UNL d   1     -33.309  21.634  23.512  0.00  0.00     0.015 A 
ATOM     14  C   UNL d   1     -29.615  21.674  24.009  0.00  0.00     0.051 A 
ATOM     15  C   UNL d   1     -34.186  21.785  22.480  0.00  0.00     0.001 A 
ATOM     16  C   UNL d   1     -33.731  22.026  21.185  0.00  0.00     0.002 A 
BRANCH  12  17
ATOM     17  C   UNL d   1     -31.380  21.310  25.739  0.00  0.00     0.177 C 
ATOM     18  O   UNL d   1     -31.482  22.230  26.524  0.00  0.00    -0.646 OA
BRANCH  17  19
ATOM     19  O   UNL d   1     -31.653  20.052  26.136  0.00  0.00    -0.773 OA
ATOM     20  H   UNL d   1     -32.088  19.474  25.495  0.00  0.00     0.167 HD
ENDBRANCH  17  19
ENDBRANCH  12  17
ENDBRANCH   3   7
BRANCH   1  21
ATOM     21  O   UNL d   1     -24.789  23.624  23.579  0.00  0.00    -0.353 OA
ATOM     22  C   UNL d   1     -25.149  24.987  23.810  0.00  0.00     0.210 C 
ENDBRANCH   1  21
BRANCH   6  23
ATOM     23  O   UNL d   1     -23.817  22.336  21.351  0.00  0.00    -0.339 OA
BRANCH  23  24
ATOM     24  C   UNL d   1     -23.438  23.415  20.494  0.00  0.00     0.278 C 
BRANCH  24  25
ATOM     25  C   UNL d   1     -22.446  24.297  21.205  0.00  0.00     0.246 C 
ATOM     26  O   UNL d   1     -22.058  25.320  20.680  0.00  0.00    -0.271 OA
ATOM     27  N   UNL d   1     -21.989  23.950  22.425  0.00  0.00    -0.325 N 
ATOM     28  H   UNL d   1     -22.240  23.097  22.812  0.00  0.00     0.169 HD
BRANCH  27  29
ATOM     29  C   UNL d   1     -21.152  24.821  23.132  0.00  0.00     0.035 A 
ATOM     30  C   UNL d   1     -21.698  25.797  23.954  0.00  0.00     0.036 A 
ATOM     31  C   UNL d   1     -20.868  26.655  24.650  0.00  0.00    -0.060 A 
ATOM     32  C   UNL d   1     -19.496  26.542  24.529  0.00  0.00     0.007 A 
ATOM     33  C   UNL d   1     -21.461  27.715  25.543  0.00  0.00     0.048 C 
ATOM     34  C   UNL d   1     -18.948  25.570  23.711  0.00  0.00     0.003 A 
ATOM     35  C   UNL d   1     -19.772  24.714  23.007  0.00  0.00     0.029 A 
ENDBRANCH  27  29
ENDBRANCH  24  25
ENDBRANCH  23  24
ENDBRANCH   6  23
TORSDOF 8
ENDMDL
