MODEL 1
REMARK VINA RESULT:     -12.1      0.000      0.000
REMARK  3 active torsions:
REMARK  status: ('A' for Active; 'I' for Inactive)
REMARK    1  A    between atoms: C_7  and  C_8 
REMARK    2  A    between atoms: C_11  and  C_12 
REMARK    3  A    between atoms: C_14  and  C_15 
REMARK       I    between atoms: C_15  and  N_16 
ROOT
ATOM      1  C   UNL d   1     -28.153  22.431  23.179  0.00  0.00    -0.022 A 
ATOM      2  C   UNL d   1     -28.603  21.934  24.408  0.00  0.00     0.031 A 
ATOM      3  C   UNL d   1     -29.931  21.599  24.604  0.00  0.00     0.065 A 
ATOM      4  C   UNL d   1     -30.870  21.769  23.495  0.00  0.00     0.124 A 
ATOM      5  N   UNL d   1     -32.157  21.566  23.293  0.00  0.00    -0.152 NA
ATOM      6  N   UNL d   1     -32.446  21.902  22.084  0.00  0.00    -0.192 N 
ATOM      7  C   UNL d   1     -33.794  21.808  21.517  0.00  0.00     0.204 C 
ATOM      8  N   UNL d   1     -31.427  22.341  21.430  0.00  0.00    -0.153 NA
ATOM      9  C   UNL d   1     -30.364  22.298  22.219  0.00  0.00     0.111 A 
ATOM     10  C   UNL d   1     -29.002  22.613  22.106  0.00  0.00     0.048 A 
ENDROOT
BRANCH   1  11
ATOM     11  C   UNL d   1     -26.718  22.773  23.025  0.00  0.00    -0.026 A 
ATOM     12  C   UNL d   1     -26.188  23.876  23.695  0.00  0.00     0.013 A 
ATOM     13  C   UNL d   1     -24.856  24.193  23.552  0.00  0.00     0.013 A 
ATOM     14  C   UNL d   1     -24.036  23.413  22.738  0.00  0.00    -0.025 A 
ATOM     15  C   UNL d   1     -24.565  22.310  22.068  0.00  0.00     0.013 A 
ATOM     16  C   UNL d   1     -25.897  21.989  22.215  0.00  0.00     0.013 A 
BRANCH  14  17
ATOM     17  C   UNL d   1     -22.601  23.754  22.585  0.00  0.00    -0.020 A 
ATOM     18  C   UNL d   1     -22.117  24.211  21.360  0.00  0.00    -0.051 A 
ATOM     19  C   UNL d   1     -23.051  24.358  20.187  0.00  0.00     0.049 C 
ATOM     20  C   UNL d   1     -20.781  24.533  21.226  0.00  0.00     0.007 A 
ATOM     21  C   UNL d   1     -19.922  24.393  22.301  0.00  0.00     0.001 A 
ATOM     22  C   UNL d   1     -20.396  23.935  23.518  0.00  0.00     0.001 A 
ATOM     23  C   UNL d   1     -21.730  23.616  23.665  0.00  0.00     0.013 A 
ENDBRANCH  14  17
ENDBRANCH   1  11
BRANCH   3  24
ATOM     24  C   UNL d   1     -30.391  21.077  25.902  0.00  0.00     0.251 C 
ATOM     25  N   UNL d   1     -30.955  19.854  25.974  0.00  0.00    -0.366 N 
ATOM     26  H   UNL d   1     -31.058  19.319  25.171  0.00  0.00     0.159 HD
ATOM     27  H   UNL d   1     -31.254  19.507  26.829  0.00  0.00     0.159 HD
ATOM     28  O   UNL d   1     -30.262  21.746  26.908  0.00  0.00    -0.268 OA
ENDBRANCH   3  24
TORSDOF 3
ENDMDL
