MODEL 1
REMARK VINA RESULT:     -10.7      0.000      0.000
REMARK  7 active torsions:
REMARK  status: ('A' for Active; 'I' for Inactive)
REMARK    1  A    between atoms: C_2  and  O_3 
REMARK    2  A    between atoms: C_2  and  C_4 
REMARK    3  A    between atoms: C_5  and  C_6 
REMARK       I    between atoms: C_6  and  N_8 
REMARK    4  A    between atoms: N_8  and  C_9 
REMARK    5  A    between atoms: C_13  and  C_14 
REMARK    6  A    between atoms: C_18  and  O_19 
REMARK    7  A    between atoms: O_19  and  C_20 
ROOT
ATOM      1  C   UNL d   1     -27.562  22.013  23.476  0.00  0.00     0.113 A 
ATOM      2  C   UNL d   1     -26.979  21.638  22.269  0.00  0.00     0.147 A 
ATOM      3  F   UNL d   1     -27.619  20.776  21.449  0.00  0.00    -0.204 F 
ATOM      4  C   UNL d   1     -25.746  22.145  21.910  0.00  0.00     0.057 A 
ATOM      5  C   UNL d   1     -25.087  23.034  22.756  0.00  0.00    -0.020 A 
ATOM      6  C   UNL d   1     -25.669  23.405  23.967  0.00  0.00     0.057 A 
ATOM      7  C   UNL d   1     -26.904  22.901  24.321  0.00  0.00     0.147 A 
ATOM      8  F   UNL d   1     -27.472  23.264  25.492  0.00  0.00    -0.204 F 
ENDROOT
BRANCH   1   9
ATOM      9  N   UNL d   1     -28.811  21.498  23.838  0.00  0.00    -0.318 N 
ATOM     10  C   UNL d   1     -29.937  22.138  23.467  0.00  0.00     0.253 C 
ATOM     11  O   UNL d   1     -29.869  23.132  22.771  0.00  0.00    -0.268 OA
ATOM     12  H   UNL d   1     -28.866  20.679  24.355  0.00  0.00     0.169 HD
BRANCH  10  13
ATOM     13  C   UNL d   1     -31.252  21.632  23.906  0.00  0.00     0.033 C 
ATOM     14  C   UNL d   1     -31.445  21.179  25.134  0.00  0.00     0.037 C 
ATOM     15  C   UNL d   1     -32.835  20.685  25.473  0.00  0.00     0.120 C 
ATOM     16  S   UNL d   1     -33.601  20.457  23.819  0.00  0.00    -0.159 SA
ATOM     17  C   UNL d   1     -32.445  21.613  22.974  0.00  0.00     0.119 C 
BRANCH  14  18
ATOM     18  C   UNL d   1     -30.355  21.158  26.129  0.00  0.00     0.173 C 
ATOM     19  O   UNL d   1     -30.068  22.170  26.736  0.00  0.00    -0.646 OA
BRANCH  18  20
ATOM     20  O   UNL d   1     -29.678  20.016  26.362  0.00  0.00    -0.773 OA
ATOM     21  H   UNL d   1     -30.149  19.187  26.204  0.00  0.00     0.167 HD
ENDBRANCH  18  20
ENDBRANCH  14  18
ENDBRANCH  10  13
ENDBRANCH   1   9
BRANCH   5  22
ATOM     22  C   UNL d   1     -23.761  23.581  22.372  0.00  0.00    -0.023 A 
ATOM     23  C   UNL d   1     -22.851  23.959  23.355  0.00  0.00     0.049 A 
ATOM     24  C   UNL d   1     -21.614  24.468  22.990  0.00  0.00     0.079 A 
ATOM     25  C   UNL d   1     -21.285  24.595  21.648  0.00  0.00     0.037 A 
ATOM     26  C   UNL d   1     -22.191  24.224  20.671  0.00  0.00     0.004 A 
ATOM     27  C   UNL d   1     -23.425  23.716  21.026  0.00  0.00     0.012 A 
BRANCH  24  28
ATOM     28  O   UNL d   1     -20.723  24.838  23.946  0.00  0.00    -0.255 OA
BRANCH  28  29
ATOM     29  C   UNL d   1     -20.895  26.133  24.526  0.00  0.00     0.530 C 
ATOM     30  F   UNL d   1     -21.806  26.870  23.761  0.00  0.00    -0.144 F 
ATOM     31  F   UNL d   1     -21.381  26.000  25.831  0.00  0.00    -0.144 F 
ATOM     32  F   UNL d   1     -19.664  26.799  24.553  0.00  0.00    -0.144 F 
ENDBRANCH  28  29
ENDBRANCH  24  28
ENDBRANCH   5  22
TORSDOF 7
ENDMDL
