MODEL 1
REMARK VINA RESULT:     -10.9      0.000      0.000
REMARK  6 active torsions:
REMARK  status: ('A' for Active; 'I' for Inactive)
REMARK    1  A    between atoms: O_2  and  C_3 
REMARK    2  A    between atoms: C_5  and  C_6 
REMARK    3  A    between atoms: C_9  and  C_10 
REMARK    4  A    between atoms: C_10  and  O_12 
REMARK    5  A    between atoms: C_20  and  O_21 
REMARK    6  A    between atoms: C_23  and  C_24 
ROOT
ATOM      1  C   UNL d   1     -24.704  24.043  23.425  0.00  0.00     0.083 A 
ATOM      2  C   UNL d   1     -25.971  23.684  23.848  0.00  0.00     0.053 A 
ATOM      3  C   UNL d   1     -26.668  22.673  23.183  0.00  0.00     0.015 A 
ATOM      4  C   UNL d   1     -26.085  22.020  22.095  0.00  0.00     0.053 A 
ATOM      5  C   UNL d   1     -24.821  22.381  21.667  0.00  0.00     0.083 A 
ATOM      6  C   UNL d   1     -24.121  23.394  22.332  0.00  0.00     0.041 A 
ENDROOT
BRANCH   3   7
ATOM      7  C   UNL d   1     -28.022  22.290  23.635  0.00  0.00     0.139 A 
ATOM      8  N   UNL d   1     -28.331  21.820  24.881  0.00  0.00    -0.338 N 
ATOM      9  C   UNL d   1     -29.694  21.582  24.895  0.00  0.00     0.064 A 
ATOM     10  H   UNL d   1     -27.714  21.680  25.615  0.00  0.00     0.167 HD
ATOM     11  C   UNL d   1     -30.165  21.930  23.618  0.00  0.00     0.102 A 
ATOM     12  C   UNL d   1     -30.575  21.110  25.857  0.00  0.00     0.032 A 
ATOM     13  N   UNL d   1     -29.108  22.350  22.900  0.00  0.00    -0.227 NA
ATOM     14  C   UNL d   1     -31.541  21.791  23.327  0.00  0.00     0.068 A 
ATOM     15  C   UNL d   1     -32.404  21.314  24.312  0.00  0.00     0.021 A 
ATOM     16  C   UNL d   1     -31.919  20.979  25.562  0.00  0.00     0.003 A 
BRANCH  14  17
ATOM     17  C   UNL d   1     -32.058  22.148  21.996  0.00  0.00     0.178 C 
ATOM     18  O   UNL d   1     -33.253  22.291  21.827  0.00  0.00    -0.646 OA
BRANCH  17  19
ATOM     19  O   UNL d   1     -31.207  22.315  20.964  0.00  0.00    -0.773 OA
ATOM     20  H   UNL d   1     -30.486  21.676  20.882  0.00  0.00     0.167 HD
ENDBRANCH  17  19
ENDBRANCH  14  17
ENDBRANCH   3   7
BRANCH   1  21
ATOM     21  O   UNL d   1     -24.026  25.026  24.072  0.00  0.00    -0.355 OA
ATOM     22  C   UNL d   1     -24.194  26.360  23.586  0.00  0.00     0.210 C 
ENDBRANCH   1  21
BRANCH   5  23
ATOM     23  O   UNL d   1     -24.256  21.750  20.604  0.00  0.00    -0.355 OA
ATOM     24  C   UNL d   1     -24.627  22.213  19.305  0.00  0.00     0.210 C 
ENDBRANCH   5  23
BRANCH   6  25
ATOM     25  C   UNL d   1     -22.763  23.778  21.879  0.00  0.00    -0.020 A 
ATOM     26  C   UNL d   1     -22.601  24.550  20.729  0.00  0.00     0.012 A 
ATOM     27  C   UNL d   1     -21.335  24.904  20.312  0.00  0.00     0.001 A 
ATOM     28  C   UNL d   1     -20.226  24.495  21.032  0.00  0.00     0.000 A 
ATOM     29  C   UNL d   1     -20.381  23.729  22.174  0.00  0.00     0.001 A 
ATOM     30  C   UNL d   1     -21.643  23.374  22.604  0.00  0.00     0.012 A 
ENDBRANCH   6  25
TORSDOF 6
ENDMDL
