MODEL 1
REMARK VINA RESULT:      -8.2      0.000      0.000
REMARK  7 active torsions:
REMARK  status: ('A' for Active; 'I' for Inactive)
REMARK    1  A    between atoms: C_2  and  N_3 
REMARK    2  A    between atoms: C_4  and  C_5 
REMARK    3  A    between atoms: C_5  and  O_6 
REMARK    4  A    between atoms: N_8  and  C_9 
REMARK    5  A    between atoms: C_12  and  C_13 
REMARK    6  A    between atoms: C_13  and  C_15 
REMARK    7  A    between atoms: N_20  and  C_21 
ROOT
ATOM      1  C   UNL d   1     -21.837  24.534  23.090  0.00  0.00     0.103 A 
ATOM      2  C   UNL d   1     -21.454  25.233  24.222  0.00  0.00     0.049 A 
ATOM      3  C   UNL d   1     -20.157  25.735  24.313  0.00  0.00     0.009 A 
ATOM      4  C   UNL d   1     -19.698  26.475  25.489  0.00  0.00     0.079 A 
ATOM      5  N   UNL d   1     -18.483  26.934  25.535  0.00  0.00    -0.167 NA
ATOM      6  N   UNL d   1     -17.569  26.752  24.497  0.00  0.00    -0.196 N 
ATOM      7  C   UNL d   1     -17.896  26.083  23.372  0.00  0.00     0.279 A 
ATOM      8  O   UNL d   1     -17.081  25.937  22.478  0.00  0.00    -0.265 OA
ATOM      9  C   UNL d   1     -19.250  25.536  23.243  0.00  0.00     0.049 A 
ATOM     10  C   UNL d   1     -19.656  24.833  22.108  0.00  0.00     0.062 A 
ATOM     11  C   UNL d   1     -20.940  24.339  22.037  0.00  0.00     0.146 A 
ATOM     12  F   UNL d   1     -21.334  23.659  20.938  0.00  0.00    -0.204 F 
ENDROOT
BRANCH   1  13
ATOM     13  N   UNL d   1     -23.136  24.025  22.998  0.00  0.00    -0.178 N 
ATOM     14  N   UNL d   1     -23.513  22.820  22.390  0.00  0.00    -0.147 NA
ATOM     15  C   UNL d   1     -24.796  22.691  22.511  0.00  0.00     0.154 A 
ATOM     16  N   UNL d   1     -25.290  23.787  23.177  0.00  0.00    -0.283 N 
ATOM     17  C   UNL d   1     -24.257  24.601  23.476  0.00  0.00     0.351 A 
ATOM     18  O   UNL d   1     -24.325  25.663  24.070  0.00  0.00    -0.244 OA
BRANCH  15  19
ATOM     19  C   UNL d   1     -25.614  21.533  22.001  0.00  0.00     0.244 C 
BRANCH  19  20
ATOM     20  O   UNL d   1     -24.754  20.585  21.367  0.00  0.00    -0.393 OA
ATOM     21  H   UNL d   1     -24.737  20.652  20.403  0.00  0.00     0.209 HD
ENDBRANCH  19  20
ENDBRANCH  15  19
BRANCH  16  22
ATOM     22  C   UNL d   1     -26.695  24.025  23.512  0.00  0.00     0.131 C 
ATOM     23  C   UNL d   1     -27.009  23.396  24.871  0.00  0.00     0.027 C 
ENDBRANCH  16  22
ENDBRANCH   1  13
BRANCH   4  24
ATOM     24  C   UNL d   1     -20.636  26.708  26.646  0.00  0.00     0.144 C 
ATOM     25  C   UNL d   1     -19.882  26.507  27.961  0.00  0.00     0.026 C 
BRANCH  24  26
ATOM     26  C   UNL d   1     -21.180  28.137  26.582  0.00  0.00     0.396 C 
ATOM     27  F   UNL d   1     -21.841  28.330  25.365  0.00  0.00    -0.170 F 
ATOM     28  F   UNL d   1     -22.075  28.342  27.637  0.00  0.00    -0.170 F 
ATOM     29  F   UNL d   1     -20.120  29.043  26.687  0.00  0.00    -0.170 F 
ENDBRANCH  24  26
ENDBRANCH   4  24
BRANCH   6  30
ATOM     30  C   UNL d   1     -16.279  27.276  24.626  0.00  0.00     0.068 A 
ATOM     31  C   UNL d   1     -15.279  26.524  25.231  0.00  0.00    -0.033 A 
ATOM     32  C   UNL d   1     -14.006  27.045  25.357  0.00  0.00     0.009 A 
ATOM     33  C   UNL d   1     -15.583  25.142  25.749  0.00  0.00     0.050 C 
ATOM     34  C   UNL d   1     -13.726  28.312  24.881  0.00  0.00     0.001 A 
ATOM     35  C   UNL d   1     -14.718  29.063  24.278  0.00  0.00     0.002 A 
ATOM     36  C   UNL d   1     -15.991  28.547  24.145  0.00  0.00     0.032 A 
ENDBRANCH   6  30
TORSDOF 7
ENDMDL
