MODEL 1
REMARK VINA RESULT:      -9.9      0.000      0.000
REMARK  6 active torsions:
REMARK  status: ('A' for Active; 'I' for Inactive)
REMARK    1  A    between atoms: C_7  and  N_8 
REMARK       I    between atoms: N_8  and  C_9 
REMARK    2  A    between atoms: C_9  and  C_11 
REMARK    3  A    between atoms: C_15  and  N_16 
REMARK    4  A    between atoms: C_27  and  O_28 
REMARK    5  A    between atoms: O_28  and  C_29 
REMARK    6  A    between atoms: C_29  and  C_31 
ROOT
ATOM      1  C   UNL d   1     -24.125  24.377  23.439  0.00  0.00     0.067 A 
ATOM      2  C   UNL d   1     -24.959  24.881  24.443  0.00  0.00     0.046 A 
ATOM      3  C   UNL d   1     -26.210  24.343  24.633  0.00  0.00     0.064 A 
ATOM      4 CL   UNL d   1     -27.242  24.970  25.880  0.00  0.00    -0.082 Cl
ATOM      5  C   UNL d   1     -26.653  23.295  23.827  0.00  0.00     0.088 A 
ATOM      6  C   UNL d   1     -25.831  22.784  22.832  0.00  0.00     0.071 A 
ATOM      7  C   UNL d   1     -24.572  23.321  22.629  0.00  0.00     0.087 A 
ENDROOT
BRANCH   1   8
ATOM      8  C   UNL d   1     -22.785  24.949  23.233  0.00  0.00     0.259 C 
ATOM      9  N   UNL d   1     -21.705  24.347  23.772  0.00  0.00    -0.322 N 
ATOM     10  H   UNL d   1     -21.818  23.584  24.360  0.00  0.00     0.169 HD
ATOM     11  O   UNL d   1     -22.650  25.965  22.578  0.00  0.00    -0.267 OA
BRANCH   9  12
ATOM     12  C   UNL d   1     -20.422  24.821  23.480  0.00  0.00     0.041 A 
ATOM     13  C   UNL d   1     -19.793  25.704  24.347  0.00  0.00    -0.035 A 
ATOM     14  C   UNL d   1     -20.492  26.153  25.604  0.00  0.00     0.050 C 
ATOM     15  C   UNL d   1     -18.526  26.171  24.055  0.00  0.00     0.009 A 
ATOM     16  C   UNL d   1     -17.884  25.759  22.902  0.00  0.00     0.001 A 
ATOM     17  C   UNL d   1     -18.508  24.880  22.036  0.00  0.00     0.002 A 
ATOM     18  C   UNL d   1     -19.772  24.404  22.325  0.00  0.00     0.030 A 
ENDBRANCH   9  12
ENDBRANCH   1   8
BRANCH   7  19
ATOM     19  O   UNL d   1     -23.770  22.826  21.653  0.00  0.00    -0.336 OA
BRANCH  19  20
ATOM     20  C   UNL d   1     -23.909  23.393  20.349  0.00  0.00     0.232 C 
ATOM     21  C   UNL d   1     -22.537  23.833  19.833  0.00  0.00     0.049 C 
BRANCH  20  22
ATOM     22  C   UNL d   1     -24.500  22.349  19.399  0.00  0.00     0.413 C 
ATOM     23  F   UNL d   1     -23.664  21.227  19.363  0.00  0.00    -0.168 F 
ATOM     24  F   UNL d   1     -25.769  21.971  19.850  0.00  0.00    -0.168 F 
ATOM     25  F   UNL d   1     -24.605  22.893  18.114  0.00  0.00    -0.168 F 
ENDBRANCH  20  22
ENDBRANCH  19  20
ENDBRANCH   7  19
BRANCH   5  26
ATOM     26  N   UNL d   1     -27.924  22.753  24.025  0.00  0.00    -0.179 N 
ATOM     27  C   UNL d   1     -28.319  22.005  25.079  0.00  0.00     0.351 A 
ATOM     28  N   UNL d   1     -29.618  21.712  24.898  0.00  0.00    -0.284 N 
ATOM     29  O   UNL d   1     -27.627  21.657  26.018  0.00  0.00    -0.244 OA
ATOM     30  C   UNL d   1     -30.021  22.255  23.695  0.00  0.00     0.131 A 
ATOM     31  C   UNL d   1     -30.500  20.969  25.803  0.00  0.00     0.135 C 
ATOM     32  N   UNL d   1     -29.026  22.883  23.168  0.00  0.00    -0.149 NA
ATOM     33  C   UNL d   1     -31.414  22.103  23.130  0.00  0.00     0.081 C 
ATOM     34  C   UNL d   1     -32.347  21.682  24.274  0.00  0.00     0.009 C 
ATOM     35  C   UNL d   1     -31.725  20.493  25.014  0.00  0.00     0.021 C 
ENDBRANCH   5  26
TORSDOF 6
ENDMDL
