MODEL 1
REMARK VINA RESULT:     -11.0      0.000      0.000
REMARK  6 active torsions:
REMARK  status: ('A' for Active; 'I' for Inactive)
REMARK    1  A    between atoms: C_8  and  N_9 
REMARK       I    between atoms: N_9  and  C_10 
REMARK    2  A    between atoms: C_10  and  C_12 
REMARK    3  A    between atoms: C_16  and  N_17 
REMARK    4  A    between atoms: C_28  and  O_29 
REMARK    5  A    between atoms: O_29  and  C_30 
REMARK    6  A    between atoms: C_30  and  C_32 
ROOT
ATOM      1  C   UNL d   1     -24.306  24.447  23.457  0.00  0.00     0.068 A 
ATOM      2  C   UNL d   1     -25.178  24.970  24.419  0.00  0.00     0.064 A 
ATOM      3  C   UNL d   1     -26.428  24.417  24.586  0.00  0.00     0.146 A 
ATOM      4  F   UNL d   1     -27.268  24.922  25.516  0.00  0.00    -0.204 F 
ATOM      5  C   UNL d   1     -26.828  23.337  23.800  0.00  0.00     0.104 A 
ATOM      6  C   UNL d   1     -25.967  22.809  22.848  0.00  0.00     0.073 A 
ATOM      7  C   UNL d   1     -24.711  23.361  22.668  0.00  0.00     0.087 A 
ENDROOT
BRANCH   1   8
ATOM      8  C   UNL d   1     -22.969  25.036  23.275  0.00  0.00     0.259 C 
ATOM      9  N   UNL d   1     -21.895  24.462  23.854  0.00  0.00    -0.322 N 
ATOM     10  H   UNL d   1     -22.013  23.710  24.455  0.00  0.00     0.169 HD
ATOM     11  O   UNL d   1     -22.832  26.040  22.603  0.00  0.00    -0.267 OA
BRANCH   9  12
ATOM     12  C   UNL d   1     -20.611  24.950  23.587  0.00  0.00     0.041 A 
ATOM     13  C   UNL d   1     -20.030  25.879  24.439  0.00  0.00    -0.032 A 
ATOM     14  C   UNL d   1     -20.782  26.364  25.652  0.00  0.00     0.050 C 
ATOM     15  C   UNL d   1     -18.761  26.357  24.176  0.00  0.00     0.051 A 
ATOM     16  C   UNL d   1     -18.072  25.916  23.058  0.00  0.00     0.117 A 
ATOM     17  F   UNL d   1     -16.833  26.389  22.800  0.00  0.00    -0.206 F 
ATOM     18  C   UNL d   1     -18.652  24.993  22.205  0.00  0.00     0.044 A 
ATOM     19  C   UNL d   1     -19.919  24.509  22.466  0.00  0.00     0.033 A 
ENDBRANCH   9  12
ENDBRANCH   1   8
BRANCH   7  20
ATOM     20  O   UNL d   1     -23.870  22.850  21.733  0.00  0.00    -0.336 OA
BRANCH  20  21
ATOM     21  C   UNL d   1     -23.960  23.393  20.413  0.00  0.00     0.232 C 
ATOM     22  C   UNL d   1     -22.567  23.815  19.940  0.00  0.00     0.049 C 
BRANCH  21  23
ATOM     23  C   UNL d   1     -24.522  22.335  19.462  0.00  0.00     0.413 C 
ATOM     24  F   UNL d   1     -24.596  22.864  18.169  0.00  0.00    -0.168 F 
ATOM     25  F   UNL d   1     -23.684  21.216  19.461  0.00  0.00    -0.168 F 
ATOM     26  F   UNL d   1     -25.802  21.960  19.886  0.00  0.00    -0.168 F 
ENDBRANCH  21  23
ENDBRANCH  20  21
ENDBRANCH   7  20
BRANCH   5  27
ATOM     27  N   UNL d   1     -28.096  22.780  23.976  0.00  0.00    -0.178 N 
ATOM     28  C   UNL d   1     -28.495  22.007  25.010  0.00  0.00     0.351 A 
ATOM     29  N   UNL d   1     -29.789  21.708  24.810  0.00  0.00    -0.284 N 
ATOM     30  O   UNL d   1     -27.808  21.647  25.948  0.00  0.00    -0.244 OA
ATOM     31  C   UNL d   1     -30.186  22.270  23.614  0.00  0.00     0.131 A 
ATOM     32  C   UNL d   1     -30.675  20.939  25.692  0.00  0.00     0.135 C 
ATOM     33  N   UNL d   1     -29.192  22.917  23.109  0.00  0.00    -0.149 NA
ATOM     34  C   UNL d   1     -31.572  22.116  23.033  0.00  0.00     0.081 C 
ATOM     35  C   UNL d   1     -32.512  21.666  24.159  0.00  0.00     0.009 C 
ATOM     36  C   UNL d   1     -31.887  20.467  24.881  0.00  0.00     0.021 C 
ENDBRANCH   5  27
TORSDOF 6
ENDMDL
