MODEL 1
REMARK VINA RESULT:     -10.3      0.000      0.000
REMARK  4 active torsions:
REMARK  status: ('A' for Active; 'I' for Inactive)
REMARK    1  A    between atoms: C_2  and  O_3 
REMARK    2  A    between atoms: C_4  and  C_7 
REMARK       I    between atoms: C_7  and  N_9 
REMARK    3  A    between atoms: N_9  and  C_10 
REMARK    4  A    between atoms: C_13  and  C_14 
ROOT
ATOM      1  C   UNL d   1     -33.167  21.281  23.792  0.00  0.00     0.077 C 
ATOM      2  C   UNL d   1     -31.868  21.723  23.169  0.00  0.00     0.065 C 
ATOM      3  C   UNL d   1     -30.749  21.845  23.940  0.00  0.00     0.141 C 
ATOM      4  C   UNL d   1     -30.809  21.553  25.340  0.00  0.00     0.107 C 
ATOM      5  N   UNL d   1     -30.857  21.320  26.451  0.00  0.00    -0.191 NA
ENDROOT
BRANCH   3   6
ATOM      6  C   UNL d   1     -29.482  22.276  23.333  0.00  0.00     0.269 C 
ATOM      7  O   UNL d   1     -29.483  23.126  22.461  0.00  0.00    -0.266 OA
ATOM      8  N   UNL d   1     -28.319  21.731  23.742  0.00  0.00    -0.322 N 
ATOM      9  H   UNL d   1     -28.324  21.008  24.388  0.00  0.00     0.169 HD
BRANCH   8  10
ATOM     10  C   UNL d   1     -27.108  22.204  23.230  0.00  0.00     0.035 A 
ATOM     11  C   UNL d   1     -26.488  23.301  23.819  0.00  0.00     0.030 A 
ATOM     12  C   UNL d   1     -25.293  23.770  23.316  0.00  0.00     0.014 A 
ATOM     13  C   UNL d   1     -24.706  23.144  22.218  0.00  0.00    -0.024 A 
ATOM     14  C   UNL d   1     -25.329  22.045  21.629  0.00  0.00     0.014 A 
ATOM     15  C   UNL d   1     -26.521  21.576  22.139  0.00  0.00     0.030 A 
BRANCH  13  16
ATOM     16  C   UNL d   1     -23.420  23.647  21.675  0.00  0.00    -0.003 A 
ATOM     17  C   UNL d   1     -22.303  23.747  22.503  0.00  0.00     0.066 A 
ATOM     18  C   UNL d   1     -21.107  24.217  21.992  0.00  0.00     0.056 A 
ATOM     19 CL   UNL d   1     -22.413  23.282  24.173  0.00  0.00    -0.082 Cl
ATOM     20  C   UNL d   1     -21.020  24.588  20.662  0.00  0.00     0.026 A 
ATOM     21 CL   UNL d   1     -19.713  24.340  23.020  0.00  0.00    -0.083 Cl
ATOM     22  C   UNL d   1     -22.126  24.489  19.837  0.00  0.00     0.003 A 
ATOM     23  C   UNL d   1     -23.323  24.017  20.336  0.00  0.00     0.014 A 
ENDBRANCH  13  16
ENDBRANCH   8  10
ENDBRANCH   3   6
BRANCH   2  24
ATOM     24  O   UNL d   1     -31.811  21.999  21.855  0.00  0.00    -0.364 OA
ATOM     25  H   UNL d   1     -30.931  22.093  21.464  0.00  0.00     0.217 HD
ENDBRANCH   2  24
TORSDOF 4
ENDMDL
