MODEL 1
REMARK VINA RESULT:     -10.0      0.000      0.000
REMARK  8 active torsions:
REMARK  status: ('A' for Active; 'I' for Inactive)
REMARK    1  A    between atoms: C_2  and  O_3 
REMARK    2  A    between atoms: C_2  and  C_33 
REMARK    3  A    between atoms: O_3  and  C_4 
REMARK    4  A    between atoms: C_6  and  N_7 
REMARK    5  A    between atoms: C_9  and  C_10 
REMARK    6  A    between atoms: C_10  and  N_11 
REMARK    7  A    between atoms: C_21  and  C_22 
REMARK       I    between atoms: C_22  and  N_24 
REMARK    8  A    between atoms: N_24  and  C_25 
ROOT
ATOM      1  C   UNL d   1     -24.698  23.382  22.635  0.00  0.00     0.087 A 
ATOM      2  C   UNL d   1     -25.966  22.854  22.808  0.00  0.00     0.073 A 
ATOM      3  C   UNL d   1     -26.813  23.381  23.773  0.00  0.00     0.104 A 
ATOM      4  C   UNL d   1     -26.391  24.444  24.572  0.00  0.00     0.146 A 
ATOM      5  F   UNL d   1     -27.220  24.952  25.510  0.00  0.00    -0.204 F 
ATOM      6  C   UNL d   1     -25.132  24.976  24.409  0.00  0.00     0.064 A 
ATOM      7  C   UNL d   1     -24.272  24.450  23.438  0.00  0.00     0.068 A 
ENDROOT
BRANCH   7   8
ATOM      8  C   UNL d   1     -22.924  25.016  23.260  0.00  0.00     0.259 C 
ATOM      9  O   UNL d   1     -22.775  26.044  22.626  0.00  0.00    -0.267 OA
ATOM     10  N   UNL d   1     -21.856  24.396  23.800  0.00  0.00    -0.318 N 
ATOM     11  H   UNL d   1     -21.963  23.535  24.233  0.00  0.00     0.169 HD
BRANCH  10  12
ATOM     12  C   UNL d   1     -20.592  24.996  23.737  0.00  0.00     0.113 A 
ATOM     13  C   UNL d   1     -20.222  25.945  24.683  0.00  0.00     0.146 A 
ATOM     14  C   UNL d   1     -18.972  26.534  24.616  0.00  0.00     0.045 A 
ATOM     15  F   UNL d   1     -21.082  26.291  25.665  0.00  0.00    -0.204 F 
ATOM     16  C   UNL d   1     -18.091  26.180  23.611  0.00  0.00     0.006 A 
ATOM     17  C   UNL d   1     -18.455  25.236  22.669  0.00  0.00     0.045 A 
ATOM     18  C   UNL d   1     -19.701  24.638  22.732  0.00  0.00     0.146 A 
ATOM     19  F   UNL d   1     -20.053  23.712  21.813  0.00  0.00    -0.204 F 
ENDBRANCH  10  12
ENDBRANCH   7   8
BRANCH   1  20
ATOM     20  O   UNL d   1     -23.870  22.867  21.692  0.00  0.00    -0.336 OA
BRANCH  20  21
ATOM     21  C   UNL d   1     -23.983  23.396  20.369  0.00  0.00     0.232 C 
ATOM     22  C   UNL d   1     -22.604  23.843  19.879  0.00  0.00     0.049 C 
BRANCH  21  23
ATOM     23  C   UNL d   1     -24.532  22.315  19.433  0.00  0.00     0.413 C 
ATOM     24  F   UNL d   1     -24.594  22.817  18.129  0.00  0.00    -0.168 F 
ATOM     25  F   UNL d   1     -23.688  21.200  19.464  0.00  0.00    -0.168 F 
ATOM     26  F   UNL d   1     -25.813  21.944  19.853  0.00  0.00    -0.168 F 
ENDBRANCH  21  23
ENDBRANCH  20  21
ENDBRANCH   1  20
BRANCH   3  27
ATOM     27  N   UNL d   1     -28.089  22.842  23.948  0.00  0.00    -0.178 N 
ATOM     28  C   UNL d   1     -28.470  21.990  24.921  0.00  0.00     0.351 A 
ATOM     29  N   UNL d   1     -29.778  21.720  24.732  0.00  0.00    -0.287 N 
ATOM     30  O   UNL d   1     -27.764  21.547  25.810  0.00  0.00    -0.244 OA
ATOM     31  C   UNL d   1     -30.204  22.407  23.621  0.00  0.00     0.159 A 
ATOM     32  C   UNL d   1     -30.601  20.838  25.562  0.00  0.00     0.163 C 
ATOM     33  N   UNL d   1     -29.210  23.082  23.141  0.00  0.00    -0.147 NA
BRANCH  31  34
ATOM     34  C   UNL d   1     -31.601  22.380  23.057  0.00  0.00     0.351 C 
BRANCH  34  35
ATOM     35  N   UNL d   1     -31.588  21.704  21.752  0.00  0.00     0.087 N 
ATOM     36  C   UNL d   1     -32.942  21.627  21.186  0.00  0.00     0.309 C 
ATOM     37  C   UNL d   1     -30.664  22.370  20.823  0.00  0.00     0.309 C 
ENDBRANCH  34  35
ENDBRANCH  31  34
ENDBRANCH   3  27
TORSDOF 8
ENDMDL
