MODEL 1
REMARK VINA RESULT:     -10.7      0.000      0.000
REMARK  6 active torsions:
REMARK  status: ('A' for Active; 'I' for Inactive)
REMARK    1  A    between atoms: N_2  and  N_3 
REMARK    2  A    between atoms: N_2  and  C_14 
REMARK    3  A    between atoms: C_4  and  C_5 
REMARK    4  A    between atoms: C_10  and  C_11 
REMARK    5  A    between atoms: C_11  and  O_13 
REMARK    6  A    between atoms: C_16  and  C_17 
ROOT
ATOM      1  C   UNL d   1     -27.250  22.861  24.981  0.00  0.00     0.182 C 
ATOM      2  N   UNL d   1     -27.568  22.288  23.671  0.00  0.00    -0.251 N 
ENDROOT
BRANCH   2   3
ATOM      3  N   UNL d   1     -28.845  21.768  23.426  0.00  0.00    -0.182 NA
ATOM      4  C   UNL d   1     -29.873  22.563  23.379  0.00  0.00     0.151 C 
BRANCH   4   5
ATOM      5  C   UNL d   1     -31.215  22.017  23.122  0.00  0.00    -0.000 A 
ATOM      6  C   UNL d   1     -31.911  21.333  24.141  0.00  0.00     0.049 A 
ATOM      7  C   UNL d   1     -33.185  20.825  23.881  0.00  0.00     0.019 A 
ATOM      8  C   UNL d   1     -33.749  20.984  22.633  0.00  0.00     0.001 A 
ATOM      9  C   UNL d   1     -33.062  21.652  21.630  0.00  0.00     0.001 A 
ATOM     10  C   UNL d   1     -31.806  22.166  21.865  0.00  0.00     0.014 A 
BRANCH   6  11
ATOM     11  C   UNL d   1     -31.300  21.160  25.471  0.00  0.00     0.177 C 
ATOM     12  O   UNL d   1     -31.551  21.949  26.361  0.00  0.00    -0.646 OA
BRANCH  11  13
ATOM     13  O   UNL d   1     -30.464  20.128  25.700  0.00  0.00    -0.773 OA
ATOM     14  H   UNL d   1     -30.837  19.239  25.634  0.00  0.00     0.167 HD
ENDBRANCH  11  13
ENDBRANCH   6  11
ENDBRANCH   4   5
ENDBRANCH   2   3
BRANCH   2  15
ATOM     15  C   UNL d   1     -26.606  22.259  22.675  0.00  0.00     0.189 A 
ATOM     16  S   UNL d   1     -26.737  21.371  21.160  0.00  0.00    -0.060 SA
ATOM     17  C   UNL d   1     -25.145  21.955  20.680  0.00  0.00     0.086 A 
ATOM     18  C   UNL d   1     -24.670  22.740  21.664  0.00  0.00     0.076 A 
ATOM     19  N   UNL d   1     -25.469  22.883  22.713  0.00  0.00    -0.222 NA
BRANCH  18  20
ATOM     20  C   UNL d   1     -23.344  23.398  21.583  0.00  0.00    -0.005 A 
ATOM     21  C   UNL d   1     -22.554  23.522  22.725  0.00  0.00     0.037 A 
ATOM     22  C   UNL d   1     -21.316  24.131  22.642  0.00  0.00     0.035 A 
ATOM     23  C   UNL d   1     -20.867  24.628  21.430  0.00  0.00     0.024 A 
ATOM     24 CL   UNL d   1     -20.327  24.282  24.061  0.00  0.00    -0.084 Cl
ATOM     25  C   UNL d   1     -21.650  24.512  20.297  0.00  0.00     0.003 A 
ATOM     26  C   UNL d   1     -22.885  23.900  20.366  0.00  0.00     0.014 A 
ENDBRANCH  18  20
ENDBRANCH   2  15
TORSDOF 6
ENDMDL
