MODEL 1
REMARK VINA RESULT:     -12.0      0.000      0.000
REMARK  4 active torsions:
REMARK  status: ('A' for Active; 'I' for Inactive)
REMARK    1  A    between atoms: C_4  and  C_5 
REMARK    2  A    between atoms: C_5  and  O_7 
REMARK    3  A    between atoms: C_11  and  C_12 
REMARK    4  A    between atoms: C_15  and  C_16 
ROOT
ATOM      1  C   UNL d   1     -33.960  21.456  22.840  0.00  0.00     0.048 C 
ATOM      2  C   UNL d   1     -32.538  21.526  23.330  0.00  0.00    -0.059 A 
ATOM      3  C   UNL d   1     -32.234  21.104  24.611  0.00  0.00     0.027 A 
ATOM      4  C   UNL d   1     -30.920  21.164  25.079  0.00  0.00     0.067 A 
ATOM      5  C   UNL d   1     -29.910  21.655  24.241  0.00  0.00     0.080 A 
ATOM      6  N   UNL d   1     -28.554  21.835  24.386  0.00  0.00    -0.338 N 
ATOM      7  H   UNL d   1     -28.028  21.630  25.175  0.00  0.00     0.167 HD
ATOM      8  C   UNL d   1     -28.085  22.360  23.210  0.00  0.00     0.139 A 
ATOM      9  N   UNL d   1     -29.076  22.499  22.363  0.00  0.00    -0.228 NA
ATOM     10  C   UNL d   1     -30.228  22.081  22.940  0.00  0.00     0.087 A 
ATOM     11  C   UNL d   1     -31.552  22.011  22.496  0.00  0.00     0.040 A 
ENDROOT
BRANCH   8  12
ATOM     12  C   UNL d   1     -26.676  22.710  22.938  0.00  0.00     0.010 A 
ATOM     13  C   UNL d   1     -25.942  21.977  22.003  0.00  0.00     0.016 A 
ATOM     14  C   UNL d   1     -24.630  22.304  21.749  0.00  0.00     0.013 A 
ATOM     15  C   UNL d   1     -24.031  23.367  22.425  0.00  0.00    -0.020 A 
ATOM     16  C   UNL d   1     -24.763  24.100  23.360  0.00  0.00     0.013 A 
ATOM     17  C   UNL d   1     -26.078  23.779  23.611  0.00  0.00     0.016 A 
BRANCH  15  18
ATOM     18  C   UNL d   1     -22.618  23.719  22.151  0.00  0.00     0.051 A 
ATOM     19  C   UNL d   1     -21.629  23.437  23.095  0.00  0.00     0.130 A 
ATOM     20  C   UNL d   1     -20.313  23.769  22.832  0.00  0.00     0.043 A 
ATOM     21  F   UNL d   1     -21.957  22.842  24.262  0.00  0.00    -0.205 F 
ATOM     22  C   UNL d   1     -19.975  24.378  21.637  0.00  0.00     0.006 A 
ATOM     23  C   UNL d   1     -20.950  24.662  20.698  0.00  0.00     0.043 A 
ATOM     24  C   UNL d   1     -22.269  24.331  20.945  0.00  0.00     0.130 A 
ATOM     25  F   UNL d   1     -23.219  24.603  20.024  0.00  0.00    -0.205 F 
ENDBRANCH  15  18
ENDBRANCH   8  12
BRANCH   4  26
ATOM     26  C   UNL d   1     -30.598  20.715  26.445  0.00  0.00     0.178 C 
ATOM     27  O   UNL d   1     -29.988  21.448  27.198  0.00  0.00    -0.646 OA
BRANCH  26  28
ATOM     28  O   UNL d   1     -30.980  19.491  26.860  0.00  0.00    -0.773 OA
ATOM     29  H   UNL d   1     -30.326  18.968  27.345  0.00  0.00     0.167 HD
ENDBRANCH  26  28
ENDBRANCH   4  26
TORSDOF 4
ENDMDL
