MODEL 1
REMARK VINA RESULT:     -13.3      0.000      0.000
REMARK  2 active torsions:
REMARK  status: ('A' for Active; 'I' for Inactive)
REMARK    1  A    between atoms: N_16  and  C_17 
REMARK    2  A    between atoms: C_21  and  C_22 
ROOT
ATOM      1  O   UNL d   1     -32.047  21.061  26.131  0.00  0.00    -0.285 OA
ATOM      2  C   UNL d   1     -31.373  21.425  25.188  0.00  0.00     0.216 A 
ATOM      3  C   UNL d   1     -31.996  21.610  23.859  0.00  0.00     0.031 A 
ATOM      4  C   UNL d   1     -33.355  21.370  23.679  0.00  0.00     0.019 A 
ATOM      5  C   UNL d   1     -33.927  21.546  22.431  0.00  0.00     0.043 A 
ATOM      6  C   UNL d   1     -33.156  21.962  21.360  0.00  0.00     0.117 A 
ATOM      7  F   UNL d   1     -33.727  22.131  20.147  0.00  0.00    -0.206 F 
ATOM      8  C   UNL d   1     -31.799  22.205  21.524  0.00  0.00     0.058 A 
ATOM      9  C   UNL d   1     -31.212  22.032  22.771  0.00  0.00     0.034 A 
ATOM     10  C   UNL d   1     -29.765  22.289  22.961  0.00  0.00     0.214 A 
ATOM     11  O   UNL d   1     -29.084  22.654  22.024  0.00  0.00    -0.285 OA
ATOM     12  C   UNL d   1     -29.158  22.102  24.286  0.00  0.00     0.146 A 
ATOM     13  C   UNL d   1     -29.933  21.685  25.363  0.00  0.00     0.164 A 
ATOM     14  N   UNL d   1     -29.099  21.611  26.408  0.00  0.00    -0.125 NA
ATOM     15  N   UNL d   1     -27.915  21.942  26.028  0.00  0.00    -0.059 NA
ATOM     16  N   UNL d   1     -27.897  22.249  24.776  0.00  0.00    -0.209 N 
ENDROOT
BRANCH  16  17
ATOM     17  C   UNL d   1     -26.775  22.656  24.048  0.00  0.00     0.066 A 
ATOM     18  C   UNL d   1     -26.251  23.930  24.235  0.00  0.00     0.075 A 
ATOM     19  C   UNL d   1     -25.140  24.333  23.521  0.00  0.00     0.132 A 
ATOM     20  C   UNL d   1     -24.547  23.461  22.604  0.00  0.00     0.054 A 
ATOM     21  F   UNL d   1     -24.628  25.569  23.707  0.00  0.00    -0.205 F 
ATOM     22  C   UNL d   1     -25.076  22.183  22.420  0.00  0.00     0.132 A 
ATOM     23  C   UNL d   1     -26.185  21.784  23.140  0.00  0.00     0.075 A 
ATOM     24  F   UNL d   1     -24.503  21.336  21.538  0.00  0.00    -0.205 F 
BRANCH  20  25
ATOM     25  C   UNL d   1     -23.356  23.893  21.833  0.00  0.00     0.019 A 
ATOM     26  C   UNL d   1     -22.091  23.861  22.423  0.00  0.00     0.127 A 
ATOM     27  C   UNL d   1     -20.984  24.259  21.696  0.00  0.00     0.043 A 
ATOM     28  F   UNL d   1     -21.948  23.440  23.698  0.00  0.00    -0.205 F 
ATOM     29  C   UNL d   1     -21.130  24.691  20.391  0.00  0.00     0.003 A 
ATOM     30  C   UNL d   1     -22.383  24.728  19.804  0.00  0.00     0.001 A 
ATOM     31  C   UNL d   1     -23.496  24.334  20.519  0.00  0.00     0.015 A 
ENDBRANCH  20  25
ENDBRANCH  16  17
TORSDOF 2
ENDMDL
