MODEL 1
REMARK VINA RESULT:      -8.8      0.000      0.000
REMARK  3 active torsions:
REMARK  status: ('A' for Active; 'I' for Inactive)
REMARK    1  A    between atoms: C_6  and  N_7 
REMARK    2  A    between atoms: N_7  and  C_8 
REMARK    3  A    between atoms: C_11  and  C_12 
ROOT
ATOM      1  C   UNL d   1     -33.410  19.914  25.434  0.00  0.00     0.074 C 
ATOM      2  C   UNL d   1     -32.105  20.569  25.060  0.00  0.00     0.075 A 
ATOM      3  N   UNL d   1     -30.959  20.380  25.649  0.00  0.00    -0.177 NA
ATOM      4  N   UNL d   1     -29.984  21.162  25.021  0.00  0.00    -0.261 N 
ATOM      5  H   UNL d   1     -29.046  21.205  25.267  0.00  0.00     0.191 HD
ATOM      6  C   UNL d   1     -30.568  21.848  24.016  0.00  0.00     0.145 A 
ATOM      7  C   UNL d   1     -31.917  21.501  24.013  0.00  0.00     0.115 A 
ATOM      8  C   UNL d   1     -32.921  21.992  23.118  0.00  0.00     0.105 C 
ATOM      9  N   UNL d   1     -33.717  22.382  22.408  0.00  0.00    -0.191 NA
ENDROOT
BRANCH   6  10
ATOM     10  N   UNL d   1     -29.946  22.732  23.154  0.00  0.00    -0.340 N 
ATOM     11  H   UNL d   1     -30.426  23.509  22.827  0.00  0.00     0.167 HD
BRANCH  10  12
ATOM     12  C   UNL d   1     -28.627  22.504  22.751  0.00  0.00     0.033 A 
ATOM     13  C   UNL d   1     -27.574  23.018  23.495  0.00  0.00     0.030 A 
ATOM     14  C   UNL d   1     -26.272  22.790  23.094  0.00  0.00     0.018 A 
ATOM     15  C   UNL d   1     -26.017  22.052  21.952  0.00  0.00     0.048 A 
ATOM     16  C   UNL d   1     -27.064  21.540  21.208  0.00  0.00     0.018 A 
ATOM     17  C   UNL d   1     -28.368  21.759  21.606  0.00  0.00     0.030 A 
BRANCH  15  18
ATOM     18  C   UNL d   1     -24.595  21.807  21.517  0.00  0.00     0.417 C 
ATOM     19  F   UNL d   1     -24.301  22.614  20.412  0.00  0.00    -0.166 F 
ATOM     20  F   UNL d   1     -23.725  22.119  22.566  0.00  0.00    -0.166 F 
ATOM     21  F   UNL d   1     -24.440  20.462  21.165  0.00  0.00    -0.166 F 
ENDBRANCH  15  18
ENDBRANCH  10  12
ENDBRANCH   6  10
TORSDOF 3
ENDMDL
