MODEL 1
REMARK VINA RESULT:     -10.8      0.000      0.000
REMARK  6 active torsions:
REMARK  status: ('A' for Active; 'I' for Inactive)
REMARK    1  A    between atoms: C_2  and  O_3 
REMARK    2  A    between atoms: C_2  and  C_32 
REMARK    3  A    between atoms: O_3  and  C_4 
REMARK    4  A    between atoms: C_6  and  N_7 
REMARK    5  A    between atoms: C_20  and  C_21 
REMARK       I    between atoms: C_21  and  N_23 
REMARK    6  A    between atoms: N_23  and  C_24 
ROOT
ATOM      1  C   UNL d   1     -24.682  23.370  22.637  0.00  0.00     0.087 A 
ATOM      2  C   UNL d   1     -25.945  22.832  22.813  0.00  0.00     0.073 A 
ATOM      3  C   UNL d   1     -26.794  23.356  23.778  0.00  0.00     0.104 A 
ATOM      4  C   UNL d   1     -26.380  24.422  24.575  0.00  0.00     0.146 A 
ATOM      5  F   UNL d   1     -27.213  24.931  25.509  0.00  0.00    -0.204 F 
ATOM      6  C   UNL d   1     -25.125  24.964  24.408  0.00  0.00     0.064 A 
ATOM      7  C   UNL d   1     -24.262  24.442  23.437  0.00  0.00     0.068 A 
ENDROOT
BRANCH   7   8
ATOM      8  C   UNL d   1     -22.920  25.019  23.255  0.00  0.00     0.259 C 
ATOM      9  O   UNL d   1     -22.775  26.020  22.577  0.00  0.00    -0.267 OA
ATOM     10  N   UNL d   1     -21.852  24.439  23.836  0.00  0.00    -0.319 N 
ATOM     11  H   UNL d   1     -21.960  23.616  24.338  0.00  0.00     0.169 HD
BRANCH  10  12
ATOM     12  C   UNL d   1     -20.585  25.026  23.718  0.00  0.00     0.096 A 
ATOM     13  C   UNL d   1     -20.189  26.013  24.610  0.00  0.00     0.064 A 
ATOM     14  C   UNL d   1     -18.936  26.586  24.494  0.00  0.00     0.026 A 
ATOM     15 CL   UNL d   1     -21.265  26.524  25.875  0.00  0.00    -0.082 Cl
ATOM     16  C   UNL d   1     -18.082  26.185  23.483  0.00  0.00     0.005 A 
ATOM     17  C   UNL d   1     -18.474  25.206  22.589  0.00  0.00     0.045 A 
ATOM     18  C   UNL d   1     -19.724  24.624  22.703  0.00  0.00     0.144 A 
ATOM     19  F   UNL d   1     -20.107  23.668  21.828  0.00  0.00    -0.204 F 
ENDBRANCH  10  12
ENDBRANCH   7   8
BRANCH   1  20
ATOM     20  O   UNL d   1     -23.851  22.858  21.693  0.00  0.00    -0.336 OA
BRANCH  20  21
ATOM     21  C   UNL d   1     -23.970  23.385  20.370  0.00  0.00     0.232 C 
ATOM     22  C   UNL d   1     -22.594  23.832  19.874  0.00  0.00     0.049 C 
BRANCH  21  23
ATOM     23  C   UNL d   1     -24.523  22.305  19.439  0.00  0.00     0.413 C 
ATOM     24  F   UNL d   1     -23.681  21.188  19.467  0.00  0.00    -0.168 F 
ATOM     25  F   UNL d   1     -25.804  21.934  19.863  0.00  0.00    -0.168 F 
ATOM     26  F   UNL d   1     -24.591  22.804  18.134  0.00  0.00    -0.168 F 
ENDBRANCH  21  23
ENDBRANCH  20  21
ENDBRANCH   1  20
BRANCH   3  27
ATOM     27  N   UNL d   1     -28.069  22.811  23.953  0.00  0.00    -0.178 N 
ATOM     28  C   UNL d   1     -28.475  22.041  24.988  0.00  0.00     0.351 A 
ATOM     29  N   UNL d   1     -29.770  21.756  24.787  0.00  0.00    -0.280 N 
ATOM     30  O   UNL d   1     -27.794  21.676  25.928  0.00  0.00    -0.244 OA
ATOM     31  C   UNL d   1     -30.161  22.321  23.587  0.00  0.00     0.155 A 
ATOM     32  C   UNL d   1     -30.686  20.997  25.648  0.00  0.00     0.161 C 
ATOM     33  N   UNL d   1     -29.162  22.956  23.084  0.00  0.00    -0.147 NA
ATOM     34  C   UNL d   1     -31.554  22.161  23.026  0.00  0.00     0.248 C 
ATOM     35  O   UNL d   1     -32.402  21.710  24.092  0.00  0.00    -0.382 OA
ATOM     36  C   UNL d   1     -31.890  20.573  24.796  0.00  0.00     0.188 C 
ENDBRANCH   3  27
TORSDOF 6
ENDMDL
