MODEL 1
REMARK VINA RESULT:     -10.9      0.000      0.000
REMARK  7 active torsions:
REMARK  status: ('A' for Active; 'I' for Inactive)
REMARK    1  A    between atoms: C_8  and  N_9 
REMARK       I    between atoms: N_9  and  C_10 
REMARK    2  A    between atoms: C_10  and  C_12 
REMARK    3  A    between atoms: C_16  and  N_17 
REMARK    4  A    between atoms: C_19  and  C_20 
REMARK    5  A    between atoms: C_29  and  O_30 
REMARK    6  A    between atoms: O_30  and  C_31 
REMARK    7  A    between atoms: C_31  and  C_33 
ROOT
ATOM      1  C   UNL d   1     -24.324  24.411  23.436  0.00  0.00     0.068 A 
ATOM      2  C   UNL d   1     -25.170  24.945  24.415  0.00  0.00     0.064 A 
ATOM      3  C   UNL d   1     -26.431  24.422  24.591  0.00  0.00     0.146 A 
ATOM      4  F   UNL d   1     -27.249  24.941  25.533  0.00  0.00    -0.204 F 
ATOM      5  C   UNL d   1     -26.865  23.355  23.805  0.00  0.00     0.104 A 
ATOM      6  C   UNL d   1     -26.029  22.816  22.836  0.00  0.00     0.073 A 
ATOM      7  C   UNL d   1     -24.762  23.338  22.647  0.00  0.00     0.087 A 
ENDROOT
BRANCH   1   8
ATOM      8  C   UNL d   1     -22.975  24.972  23.240  0.00  0.00     0.259 C 
ATOM      9  N   UNL d   1     -21.914  24.399  23.840  0.00  0.00    -0.320 N 
ATOM     10  H   UNL d   1     -22.023  23.573  24.334  0.00  0.00     0.169 HD
ATOM     11  O   UNL d   1     -22.821  25.951  22.534  0.00  0.00    -0.267 OA
BRANCH   9  12
ATOM     12  C   UNL d   1     -20.652  24.998  23.749  0.00  0.00     0.080 A 
ATOM     13  C   UNL d   1     -20.286  25.989  24.650  0.00  0.00    -0.032 A 
ATOM     14  C   UNL d   1     -21.247  26.423  25.725  0.00  0.00     0.050 C 
ATOM     15  C   UNL d   1     -19.038  26.575  24.561  0.00  0.00     0.009 A 
ATOM     16  C   UNL d   1     -18.156  26.182  23.571  0.00  0.00     0.004 A 
ATOM     17  C   UNL d   1     -18.515  25.194  22.672  0.00  0.00     0.045 A 
ATOM     18  C   UNL d   1     -19.760  24.601  22.758  0.00  0.00     0.143 A 
ATOM     19  F   UNL d   1     -20.112  23.636  21.880  0.00  0.00    -0.204 F 
ENDBRANCH   9  12
ENDBRANCH   1   8
BRANCH   7  20
ATOM     20  O   UNL d   1     -23.944  22.812  21.699  0.00  0.00    -0.336 OA
BRANCH  20  21
ATOM     21  C   UNL d   1     -24.044  23.357  20.382  0.00  0.00     0.232 C 
ATOM     22  C   UNL d   1     -22.661  23.807  19.909  0.00  0.00     0.049 C 
BRANCH  21  23
ATOM     23  C   UNL d   1     -24.586  22.289  19.429  0.00  0.00     0.413 C 
ATOM     24  F   UNL d   1     -25.877  21.923  19.825  0.00  0.00    -0.168 F 
ATOM     25  F   UNL d   1     -24.624  22.801  18.128  0.00  0.00    -0.168 F 
ATOM     26  F   UNL d   1     -23.752  21.166  19.464  0.00  0.00    -0.168 F 
ENDBRANCH  21  23
ENDBRANCH  20  21
ENDBRANCH   7  20
BRANCH   5  27
ATOM     27  N   UNL d   1     -28.143  22.826  23.993  0.00  0.00    -0.178 N 
ATOM     28  C   UNL d   1     -28.520  21.970  24.966  0.00  0.00     0.351 A 
ATOM     29  N   UNL d   1     -29.831  21.710  24.790  0.00  0.00    -0.288 N 
ATOM     30  O   UNL d   1     -27.806  21.515  25.842  0.00  0.00    -0.244 OA
ATOM     31  C   UNL d   1     -30.268  22.415  23.695  0.00  0.00     0.135 A 
ATOM     32  C   UNL d   1     -30.650  20.827  25.623  0.00  0.00     0.162 C 
ATOM     33  N   UNL d   1     -29.276  23.091  23.210  0.00  0.00    -0.149 NA
BRANCH  31  34
ATOM     34  C   UNL d   1     -31.672  22.408  23.149  0.00  0.00     0.057 C 
ATOM     35  C   UNL d   1     -31.750  22.079  21.649  0.00  0.00     0.012 C 
ATOM     36  C   UNL d   1     -32.996  21.240  21.979  0.00  0.00     0.002 C 
ATOM     37  C   UNL d   1     -32.424  21.090  23.401  0.00  0.00     0.012 C 
ENDBRANCH  31  34
ENDBRANCH   5  27
TORSDOF 7
ENDMDL
