MODEL 1
REMARK VINA RESULT:     -10.4      0.000      0.000
REMARK  7 active torsions:
REMARK  status: ('A' for Active; 'I' for Inactive)
REMARK    1  A    between atoms: C_4  and  C_5 
REMARK    2  A    between atoms: C_5  and  O_7 
REMARK    3  A    between atoms: C_10  and  C_11 
REMARK    4  A    between atoms: C_14  and  C_15 
REMARK    5  A    between atoms: N_23  and  C_24 
REMARK    6  A    between atoms: C_24  and  C_25 
REMARK    7  A    between atoms: C_25  and  O_26 
ROOT
ATOM      1  C   UNL d   1     -34.280  20.141  25.549  0.00  0.00     0.048 C 
ATOM      2  C   UNL d   1     -33.180  20.691  24.679  0.00  0.00    -0.059 A 
ATOM      3  C   UNL d   1     -33.466  21.097  23.389  0.00  0.00     0.027 A 
ATOM      4  C   UNL d   1     -32.460  21.608  22.572  0.00  0.00     0.069 A 
ATOM      5  C   UNL d   1     -31.142  21.708  23.073  0.00  0.00     0.103 A 
ATOM      6  N   UNL d   1     -29.986  22.152  22.549  0.00  0.00    -0.227 NA
ATOM      7  C   UNL d   1     -29.023  22.033  23.433  0.00  0.00     0.141 A 
ATOM      8  N   UNL d   1     -29.523  21.506  24.592  0.00  0.00    -0.327 N 
ATOM      9  C   UNL d   1     -30.873  21.290  24.388  0.00  0.00     0.066 A 
ATOM     10  C   UNL d   1     -31.895  20.785  25.179  0.00  0.00     0.039 A 
ENDROOT
BRANCH   7  11
ATOM     11  C   UNL d   1     -27.614  22.415  23.211  0.00  0.00     0.010 A 
ATOM     12  C   UNL d   1     -26.851  21.748  22.250  0.00  0.00     0.016 A 
ATOM     13  C   UNL d   1     -25.539  22.109  22.041  0.00  0.00     0.013 A 
ATOM     14  C   UNL d   1     -24.968  23.135  22.795  0.00  0.00    -0.026 A 
ATOM     15  C   UNL d   1     -25.729  23.802  23.755  0.00  0.00     0.013 A 
ATOM     16  C   UNL d   1     -27.043  23.446  23.962  0.00  0.00     0.016 A 
BRANCH  14  17
ATOM     17  C   UNL d   1     -23.553  23.520  22.572  0.00  0.00    -0.026 A 
ATOM     18  C   UNL d   1     -23.142  23.979  21.321  0.00  0.00     0.012 A 
ATOM     19  C   UNL d   1     -21.826  24.340  21.121  0.00  0.00     0.001 A 
ATOM     20  C   UNL d   1     -20.915  24.248  22.159  0.00  0.00     0.000 A 
ATOM     21  C   UNL d   1     -21.318  23.794  23.402  0.00  0.00     0.001 A 
ATOM     22  C   UNL d   1     -22.632  23.429  23.614  0.00  0.00     0.012 A 
ENDBRANCH  14  17
ENDBRANCH   7  11
BRANCH   8  23
ATOM     23  C   UNL d   1     -28.771  21.224  25.816  0.00  0.00     0.157 C 
BRANCH  23  24
ATOM     24  C   UNL d   1     -29.053  22.317  26.851  0.00  0.00     0.184 C 
BRANCH  24  25
ATOM     25  O   UNL d   1     -27.833  22.693  27.491  0.00  0.00    -0.399 OA
ATOM     26  H   UNL d   1     -27.641  23.640  27.446  0.00  0.00     0.209 HD
ENDBRANCH  24  25
ENDBRANCH  23  24
ENDBRANCH   8  23
BRANCH   4  27
ATOM     27  C   UNL d   1     -32.766  22.039  21.198  0.00  0.00     0.178 C 
ATOM     28  O   UNL d   1     -33.910  22.305  20.885  0.00  0.00    -0.646 OA
BRANCH  27  29
ATOM     29  O   UNL d   1     -31.778  22.137  20.286  0.00  0.00    -0.773 OA
ATOM     30  H   UNL d   1     -32.033  22.084  19.356  0.00  0.00     0.167 HD
ENDBRANCH  27  29
ENDBRANCH   4  27
TORSDOF 7
ENDMDL
