MODEL 1
REMARK VINA RESULT:     -10.2      0.000      0.000
REMARK  9 active torsions:
REMARK  status: ('A' for Active; 'I' for Inactive)
REMARK    1  A    between atoms: O_2  and  C_3 
REMARK    2  A    between atoms: C_3  and  C_5 
REMARK    3  A    between atoms: C_10  and  C_11 
REMARK    4  A    between atoms: C_11  and  C_12 
REMARK    5  A    between atoms: C_12  and  C_13 
REMARK    6  A    between atoms: C_13  and  C_14 
REMARK    7  A    between atoms: C_14  and  C_15 
REMARK    8  A    between atoms: CA_16  and  C_17 
REMARK    9  A    between atoms: C_17  and  OXT_19 
ROOT
ATOM      1  C   UNL d   1     -25.354  23.300  23.070  0.00  0.00     0.005 C 
ENDROOT
BRANCH   1   2
ATOM      2  C   UNL d   1     -26.118  22.936  24.344  0.00  0.00     0.038 C 
BRANCH   2   3
ATOM      3  C   UNL d   1     -27.555  22.644  24.002  0.00  0.00    -0.057 A 
ATOM      4  C   UNL d   1     -27.971  22.749  22.710  0.00  0.00     0.019 A 
ATOM      5  C   UNL d   1     -29.311  22.478  22.385  0.00  0.00    -0.025 A 
ATOM      6  C   UNL d   1     -29.770  22.573  21.058  0.00  0.00     0.013 A 
ATOM      7  C   UNL d   1     -30.211  22.099  23.413  0.00  0.00    -0.025 A 
ATOM      8  C   UNL d   1     -31.069  22.312  20.768  0.00  0.00     0.018 A 
ATOM      9  C   UNL d   1     -31.972  21.934  21.779  0.00  0.00     0.040 A 
ATOM     10  C   UNL d   1     -31.550  21.828  23.094  0.00  0.00     0.030 A 
ATOM     11  C   UNL d   1     -29.745  22.002  24.737  0.00  0.00     0.013 A 
ATOM     12  C   UNL d   1     -28.440  22.271  25.012  0.00  0.00     0.008 A 
BRANCH   9  13
ATOM     13  C   UNL d   1     -33.380  21.650  21.436  0.00  0.00     0.292 C 
ATOM     14  O   UNL d   1     -33.962  22.350  20.632  0.00  0.00    -0.259 OA
BRANCH  13  15
ATOM     15  O   UNL d   1     -34.018  20.614  22.014  0.00  0.00    -0.323 OA
ATOM     16  C   UNL d   1     -33.965  19.338  21.323  0.00  0.00     0.213 C 
ENDBRANCH  13  15
ENDBRANCH   9  13
ENDBRANCH   2   3
ENDBRANCH   1   2
BRANCH   1  17
ATOM     17  C   UNL d   1     -23.866  23.453  23.395  0.00  0.00     0.005 C 
BRANCH  17  18
ATOM     18  C   UNL d   1     -23.368  24.807  22.882  0.00  0.00     0.047 C 
BRANCH  18  19
ATOM     19  C   UNL d   1     -21.884  24.734  22.632  0.00  0.00     0.044 A 
ATOM     20  C   UNL d   1     -20.931  24.815  23.746  0.00  0.00     0.258 A 
ATOM     21  N   UNL d   1     -19.610  24.747  23.477  0.00  0.00    -0.275 N 
ATOM     22  O   UNL d   1     -21.324  24.942  24.890  0.00  0.00    -0.267 OA
ATOM     23  C   UNL d   1     -19.178  24.607  22.212  0.00  0.00     0.327 A 
ATOM     24  H   UNL d   1     -18.968  24.798  24.203  0.00  0.00     0.173 HD
ATOM     25  N   UNL d   1     -20.032  24.531  21.179  0.00  0.00    -0.302 N 
ATOM     26  O   UNL d   1     -17.983  24.548  21.998  0.00  0.00    -0.247 OA
ATOM     27  CA  UNL d   1     -21.396  24.587  21.373  0.00  0.00     0.122 A 
ATOM     28  H   UNL d   1     -19.684  24.430  20.279  0.00  0.00     0.171 HD
BRANCH  27  29
ATOM     29  C   UNL d   1     -22.321  24.495  20.218  0.00  0.00     0.194 C 
ATOM     30  O   UNL d   1     -22.749  23.414  19.869  0.00  0.00    -0.645 OA
BRANCH  29  31
ATOM     31  OXT UNL d   1     -22.685  25.610  19.556  0.00  0.00    -0.772 OA
ATOM     32  HXT UNL d   1     -22.214  25.806  18.735  0.00  0.00     0.167 HD
ENDBRANCH  29  31
ENDBRANCH  27  29
ENDBRANCH  18  19
ENDBRANCH  17  18
ENDBRANCH   1  17
TORSDOF 9
ENDMDL
