MODEL 1
REMARK VINA RESULT:      -9.2      0.000      0.000
REMARK  11 active torsions:
REMARK  status: ('A' for Active; 'I' for Inactive)
REMARK    1  A    between atoms: C_2  and  C_3 
REMARK    2  A    between atoms: C_3  and  C_4 
REMARK    3  A    between atoms: C_4  and  O_6 
REMARK    4  A    between atoms: O_6  and  C_7 
REMARK    5  A    between atoms: C_9  and  N_10 
REMARK    6  A    between atoms: C_12  and  C_13 
REMARK    7  A    between atoms: C_13  and  O_15 
REMARK    8  A    between atoms: C_23  and  C_24 
REMARK       I    between atoms: C_24  and  N_26 
REMARK    9  A    between atoms: N_26  and  C_27 
REMARK   10  A    between atoms: C_27  and  C_28 
REMARK   11  A    between atoms: C_27  and  C_30 
ROOT
ATOM      1  C   UNL d   1     -29.199  22.345  23.670  0.00  0.00     0.087 A 
ATOM      2  C   UNL d   1     -28.019  22.845  23.145  0.00  0.00     0.073 A 
ATOM      3  C   UNL d   1     -26.899  22.973  23.953  0.00  0.00     0.104 A 
ATOM      4  C   UNL d   1     -26.954  22.594  25.295  0.00  0.00     0.146 A 
ATOM      5  F   UNL d   1     -25.857  22.715  26.074  0.00  0.00    -0.204 F 
ATOM      6  C   UNL d   1     -28.124  22.101  25.828  0.00  0.00     0.064 A 
ATOM      7  C   UNL d   1     -29.258  21.969  25.019  0.00  0.00     0.068 A 
ENDROOT
BRANCH   3   8
ATOM      8  N   UNL d   1     -25.710  23.477  23.420  0.00  0.00    -0.178 N 
ATOM      9  C   UNL d   1     -24.892  22.849  22.551  0.00  0.00     0.351 A 
ATOM     10  N   UNL d   1     -23.862  23.680  22.294  0.00  0.00    -0.286 N 
ATOM     11  O   UNL d   1     -25.054  21.736  22.085  0.00  0.00    -0.244 OA
ATOM     12  C   UNL d   1     -24.048  24.834  23.014  0.00  0.00     0.159 A 
ATOM     13  C   UNL d   1     -22.736  23.399  21.400  0.00  0.00     0.163 C 
ATOM     14  N   UNL d   1     -25.143  24.729  23.697  0.00  0.00    -0.146 NA
BRANCH  12  15
ATOM     15  C   UNL d   1     -23.125  26.025  23.015  0.00  0.00     0.185 C 
ATOM     16  C   UNL d   1     -22.241  25.984  24.263  0.00  0.00     0.048 C 
BRANCH  15  17
ATOM     17  O   UNL d   1     -23.898  27.227  23.019  0.00  0.00    -0.388 OA
ATOM     18  H   UNL d   1     -23.715  27.814  22.273  0.00  0.00     0.210 HD
ENDBRANCH  15  17
ENDBRANCH  12  15
ENDBRANCH   3   8
BRANCH   1  19
ATOM     19  O   UNL d   1     -30.295  22.221  22.880  0.00  0.00    -0.345 OA
BRANCH  19  20
ATOM     20  C   UNL d   1     -30.124  22.480  21.485  0.00  0.00     0.124 C 
ATOM     21  C   UNL d   1     -28.986  21.614  20.941  0.00  0.00     0.040 C 
BRANCH  20  22
ATOM     22  C   UNL d   1     -31.420  22.146  20.742  0.00  0.00     0.032 C 
BRANCH  22  23
ATOM     23  C   UNL d   1     -32.561  21.995  21.748  0.00  0.00    -0.002 C 
ATOM     24  C   UNL d   1     -33.605  21.025  21.194  0.00  0.00     0.005 C 
ENDBRANCH  22  23
ENDBRANCH  20  22
ENDBRANCH  19  20
ENDBRANCH   1  19
BRANCH   7  25
ATOM     25  C   UNL d   1     -30.510  21.436  25.584  0.00  0.00     0.254 C 
ATOM     26  O   UNL d   1     -31.066  22.023  26.491  0.00  0.00    -0.268 OA
ATOM     27  N   UNL d   1     -31.037  20.296  25.095  0.00  0.00    -0.352 N 
ATOM     28  H   UNL d   1     -30.593  19.827  24.371  0.00  0.00     0.163 HD
BRANCH  27  29
ATOM     29  C   UNL d   1     -32.282  19.765  25.656  0.00  0.00     0.084 C 
BRANCH  29  30
ATOM     30  C   UNL d   1     -33.430  20.018  24.678  0.00  0.00     0.021 C 
ATOM     31  C   UNL d   1     -34.757  20.028  25.440  0.00  0.00     0.007 C 
ENDBRANCH  29  30
BRANCH  29  32
ATOM     32  C   UNL d   1     -32.135  18.260  25.890  0.00  0.00     0.021 C 
ATOM     33  C   UNL d   1     -30.889  17.995  26.738  0.00  0.00     0.007 C 
ENDBRANCH  29  32
ENDBRANCH  27  29
ENDBRANCH   7  25
TORSDOF 11
ENDMDL
