MODEL 1
REMARK VINA RESULT:     -10.2      0.000      0.000
REMARK  8 active torsions:
REMARK  status: ('A' for Active; 'I' for Inactive)
REMARK    1  A    between atoms: C_8  and  N_9 
REMARK       I    between atoms: N_9  and  C_10 
REMARK    2  A    between atoms: C_10  and  C_12 
REMARK    3  A    between atoms: C_16  and  N_17 
REMARK    4  A    between atoms: C_19  and  C_20 
REMARK    5  A    between atoms: C_20  and  O_23 
REMARK    6  A    between atoms: C_29  and  O_30 
REMARK    7  A    between atoms: O_30  and  C_31 
REMARK    8  A    between atoms: C_31  and  C_33 
ROOT
ATOM      1  C   UNL d   1     -24.269  24.434  23.438  0.00  0.00     0.068 A 
ATOM      2  C   UNL d   1     -25.136  24.955  24.404  0.00  0.00     0.064 A 
ATOM      3  C   UNL d   1     -26.386  24.405  24.577  0.00  0.00     0.146 A 
ATOM      4  F   UNL d   1     -27.220  24.910  25.511  0.00  0.00    -0.204 F 
ATOM      5  C   UNL d   1     -26.791  23.327  23.790  0.00  0.00     0.104 A 
ATOM      6  C   UNL d   1     -25.938  22.804  22.828  0.00  0.00     0.073 A 
ATOM      7  C   UNL d   1     -24.681  23.354  22.643  0.00  0.00     0.087 A 
ENDROOT
BRANCH   1   8
ATOM      8  C   UNL d   1     -22.931  25.021  23.250  0.00  0.00     0.259 C 
ATOM      9  N   UNL d   1     -21.861  24.461  23.849  0.00  0.00    -0.320 N 
ATOM     10  H   UNL d   1     -21.958  23.628  24.335  0.00  0.00     0.169 HD
ATOM     11  O   UNL d   1     -22.792  26.009  22.556  0.00  0.00    -0.267 OA
BRANCH   9  12
ATOM     12  C   UNL d   1     -20.610  25.082  23.768  0.00  0.00     0.080 A 
ATOM     13  C   UNL d   1     -20.256  26.056  24.692  0.00  0.00    -0.032 A 
ATOM     14  C   UNL d   1     -21.219  26.446  25.783  0.00  0.00     0.050 C 
ATOM     15  C   UNL d   1     -19.017  26.664  24.614  0.00  0.00     0.009 A 
ATOM     16  C   UNL d   1     -18.134  26.312  23.609  0.00  0.00     0.004 A 
ATOM     17  C   UNL d   1     -18.482  25.343  22.685  0.00  0.00     0.045 A 
ATOM     18  C   UNL d   1     -19.717  24.727  22.762  0.00  0.00     0.143 A 
ATOM     19  F   UNL d   1     -20.058  23.780  21.860  0.00  0.00    -0.204 F 
ENDBRANCH   9  12
ENDBRANCH   1   8
BRANCH   7  20
ATOM     20  O   UNL d   1     -23.849  22.847  21.700  0.00  0.00    -0.336 OA
BRANCH  20  21
ATOM     21  C   UNL d   1     -23.961  23.381  20.379  0.00  0.00     0.232 C 
ATOM     22  C   UNL d   1     -22.579  23.810  19.883  0.00  0.00     0.049 C 
BRANCH  21  23
ATOM     23  C   UNL d   1     -24.529  22.313  19.443  0.00  0.00     0.413 C 
ATOM     24  F   UNL d   1     -23.700  21.186  19.464  0.00  0.00    -0.168 F 
ATOM     25  F   UNL d   1     -25.813  21.955  19.869  0.00  0.00    -0.168 F 
ATOM     26  F   UNL d   1     -24.595  22.820  18.141  0.00  0.00    -0.168 F 
ENDBRANCH  21  23
ENDBRANCH  20  21
ENDBRANCH   7  20
BRANCH   5  27
ATOM     27  N   UNL d   1     -28.061  22.772  23.971  0.00  0.00    -0.178 N 
ATOM     28  C   UNL d   1     -28.461  22.017  25.014  0.00  0.00     0.351 A 
ATOM     29  N   UNL d   1     -29.751  21.689  24.802  0.00  0.00    -0.286 N 
ATOM     30  O   UNL d   1     -27.783  21.694  25.974  0.00  0.00    -0.244 OA
ATOM     31  C   UNL d   1     -30.148  22.241  23.609  0.00  0.00     0.164 A 
ATOM     32  C   UNL d   1     -30.587  20.876  25.691  0.00  0.00     0.163 C 
ATOM     33  N   UNL d   1     -29.151  22.890  23.098  0.00  0.00    -0.146 NA
BRANCH  31  34
ATOM     34  C   UNL d   1     -31.517  22.112  22.994  0.00  0.00     0.112 C 
ATOM     35  C   UNL d   1     -31.392  22.092  21.470  0.00  0.00     0.054 C 
ATOM     36  C   UNL d   1     -32.170  20.813  23.470  0.00  0.00     0.054 C 
BRANCH  34  37
ATOM     37  O   UNL d   1     -32.323  23.223  23.391  0.00  0.00    -0.383 OA
ATOM     38  H   UNL d   1     -32.115  24.046  22.926  0.00  0.00     0.211 HD
ENDBRANCH  34  37
ENDBRANCH  31  34
ENDBRANCH   5  27
TORSDOF 8
ENDMDL
