MODEL 1
REMARK VINA RESULT:     -12.2      0.000      0.000
REMARK  5 active torsions:
REMARK  status: ('A' for Active; 'I' for Inactive)
REMARK    1  A    between atoms: N_1  and  C_2 
REMARK    2  A    between atoms: C_3  and  C_4 
REMARK    3  A    between atoms: C_7  and  C_8 
REMARK    4  A    between atoms: C_24  and  C_25 
REMARK    5  A    between atoms: C_25  and  O_27 
ROOT
ATOM      1  C   UNL d   1     -29.023  21.778  24.415  0.00  0.00     0.073 A 
ATOM      2  C   UNL d   1     -28.555  22.250  23.168  0.00  0.00     0.095 A 
ATOM      3  N   UNL d   1     -29.348  22.379  22.127  0.00  0.00    -0.245 NA
ATOM      4  C   UNL d   1     -30.647  22.079  22.172  0.00  0.00     0.069 A 
ATOM      5  C   UNL d   1     -31.463  22.231  21.035  0.00  0.00     0.035 A 
ATOM      6  C   UNL d   1     -32.786  21.921  21.106  0.00  0.00     0.044 A 
ATOM      7  C   UNL d   1     -33.352  21.451  22.291  0.00  0.00     0.117 A 
ATOM      8  F   UNL d   1     -34.669  21.150  22.330  0.00  0.00    -0.206 F 
ATOM      9  C   UNL d   1     -32.591  21.292  23.414  0.00  0.00     0.057 A 
ATOM     10  C   UNL d   1     -31.228  21.602  23.373  0.00  0.00     0.015 A 
ATOM     11  C   UNL d   1     -30.374  21.446  24.554  0.00  0.00     0.078 A 
ENDROOT
BRANCH   2  12
ATOM     12  C   UNL d   1     -27.124  22.606  23.027  0.00  0.00    -0.005 A 
ATOM     13  C   UNL d   1     -26.587  23.648  23.783  0.00  0.00     0.014 A 
ATOM     14  C   UNL d   1     -25.255  23.975  23.655  0.00  0.00     0.013 A 
ATOM     15  C   UNL d   1     -24.447  23.272  22.762  0.00  0.00    -0.026 A 
ATOM     16  C   UNL d   1     -24.984  22.231  22.006  0.00  0.00     0.013 A 
ATOM     17  C   UNL d   1     -26.315  21.899  22.137  0.00  0.00     0.014 A 
BRANCH  15  18
ATOM     18  C   UNL d   1     -23.014  23.628  22.622  0.00  0.00    -0.026 A 
ATOM     19  C   UNL d   1     -22.175  23.608  23.735  0.00  0.00     0.012 A 
ATOM     20  C   UNL d   1     -20.843  23.941  23.598  0.00  0.00     0.001 A 
ATOM     21  C   UNL d   1     -20.339  24.292  22.358  0.00  0.00     0.000 A 
ATOM     22  C   UNL d   1     -21.167  24.314  21.250  0.00  0.00     0.001 A 
ATOM     23  C   UNL d   1     -22.499  23.978  21.374  0.00  0.00     0.012 A 
ENDBRANCH  15  18
ENDBRANCH   2  12
BRANCH   1  24
ATOM     24  N   UNL d   1     -28.157  21.651  25.486  0.00  0.00    -0.396 N 
ATOM     25  H   UNL d   1     -28.500  21.419  26.363  0.00  0.00     0.156 HD
ATOM     26  H   UNL d   1     -27.206  21.795  25.359  0.00  0.00     0.156 HD
ENDBRANCH   1  24
BRANCH  11  27
ATOM     27  C   UNL d   1     -30.915  20.955  25.830  0.00  0.00     0.179 C 
ATOM     28  O   UNL d   1     -31.687  21.644  26.469  0.00  0.00    -0.646 OA
BRANCH  27  29
ATOM     29  O   UNL d   1     -30.556  19.741  26.293  0.00  0.00    -0.773 OA
ATOM     30  H   UNL d   1     -30.432  19.041  25.637  0.00  0.00     0.167 HD
ENDBRANCH  27  29
ENDBRANCH  11  27
TORSDOF 5
ENDMDL
