MODEL 1
REMARK VINA RESULT:     -11.6      0.000      0.000
REMARK  7 active torsions:
REMARK  status: ('A' for Active; 'I' for Inactive)
REMARK    1  A    between atoms: C_5  and  C_6 
REMARK    2  A    between atoms: C_6  and  O_8 
REMARK    3  A    between atoms: C_10  and  C_11 
REMARK    4  A    between atoms: C_14  and  C_15 
REMARK    5  A    between atoms: C_19  and  C_20 
REMARK    6  A    between atoms: C_20  and  N_21 
REMARK    7  A    between atoms: N_21  and  C_22 
ROOT
ATOM      1  C   UNL d   1     -26.708  22.870  23.070  0.00  0.00    -0.026 A 
ATOM      2  C   UNL d   1     -25.904  22.194  22.154  0.00  0.00     0.013 A 
ATOM      3  C   UNL d   1     -24.587  22.562  21.991  0.00  0.00     0.013 A 
ATOM      4  C   UNL d   1     -24.057  23.611  22.742  0.00  0.00    -0.026 A 
ATOM      5  C   UNL d   1     -24.860  24.284  23.662  0.00  0.00     0.013 A 
ATOM      6  C   UNL d   1     -26.179  23.919  23.822  0.00  0.00     0.013 A 
ENDROOT
BRANCH   1   7
ATOM      7  C   UNL d   1     -28.127  22.476  23.245  0.00  0.00    -0.023 A 
ATOM      8  C   UNL d   1     -28.547  21.920  24.454  0.00  0.00     0.033 A 
ATOM      9  C   UNL d   1     -29.875  21.552  24.630  0.00  0.00     0.069 A 
ATOM     10  C   UNL d   1     -30.796  21.733  23.574  0.00  0.00     0.102 A 
ATOM     11  N   UNL d   1     -32.111  21.477  23.438  0.00  0.00    -0.233 NA
ATOM     12  C   UNL d   1     -30.357  22.289  22.360  0.00  0.00     0.064 A 
ATOM     13  C   UNL d   1     -32.511  21.829  22.249  0.00  0.00     0.101 A 
ATOM     14  C   UNL d   1     -33.921  21.693  21.735  0.00  0.00     0.091 C 
ATOM     15  N   UNL d   1     -31.468  22.335  21.540  0.00  0.00    -0.343 N 
ATOM     16  H   UNL d   1     -31.499  22.669  20.629  0.00  0.00     0.167 HD
ATOM     17  C   UNL d   1     -29.030  22.656  22.202  0.00  0.00     0.044 A 
BRANCH   9  18
ATOM     18  C   UNL d   1     -30.320  20.971  25.909  0.00  0.00     0.178 C 
ATOM     19  O   UNL d   1     -30.511  21.690  26.870  0.00  0.00    -0.646 OA
BRANCH  18  20
ATOM     20  O   UNL d   1     -30.516  19.641  26.012  0.00  0.00    -0.773 OA
ATOM     21  H   UNL d   1     -31.386  19.348  26.313  0.00  0.00     0.167 HD
ENDBRANCH  18  20
ENDBRANCH   9  18
ENDBRANCH   1   7
BRANCH   4  22
ATOM     22  C   UNL d   1     -22.639  24.007  22.566  0.00  0.00    -0.025 A 
ATOM     23  C   UNL d   1     -21.871  24.368  23.671  0.00  0.00     0.021 A 
ATOM     24  C   UNL d   1     -20.552  24.737  23.502  0.00  0.00    -0.030 A 
ATOM     25  C   UNL d   1     -19.989  24.742  22.238  0.00  0.00     0.009 A 
ATOM     26  C   UNL d   1     -20.749  24.390  21.137  0.00  0.00     0.001 A 
ATOM     27  C   UNL d   1     -22.069  24.020  21.294  0.00  0.00     0.012 A 
BRANCH  24  28
ATOM     28  C   UNL d   1     -19.721  25.127  24.696  0.00  0.00     0.309 C 
BRANCH  28  29
ATOM     29  N   UNL d   1     -19.562  26.587  24.727  0.00  0.00     0.096 N 
ATOM     30  H   UNL d   1     -19.856  27.002  23.855  0.00  0.00     0.317 HD
BRANCH  29  31
ATOM     31  C   UNL d   1     -20.289  27.173  25.860  0.00  0.00     0.147 C 
ATOM     32  C   UNL d   1     -19.478  28.332  26.443  0.00  0.00     0.048 C 
ATOM     33  C   UNL d   1     -21.647  27.692  25.382  0.00  0.00     0.048 C 
ATOM     34  C   UNL d   1     -20.501  26.107  26.937  0.00  0.00     0.048 C 
ENDBRANCH  29  31
ENDBRANCH  28  29
ENDBRANCH  24  28
ENDBRANCH   4  22
TORSDOF 7
ENDMDL
