MODEL 1
REMARK VINA RESULT:      -9.7      0.000      0.000
REMARK  3 active torsions:
REMARK  status: ('A' for Active; 'I' for Inactive)
REMARK       I    between atoms: C_2  and  N_3 
REMARK    1  A    between atoms: C_2  and  C_7 
REMARK    2  A    between atoms: N_3  and  C_4 
REMARK    3  A    between atoms: C_10  and  N_11 
ROOT
ATOM      1  C   UNL d   1     -24.177  22.997  22.155  0.00  0.00     0.074 A 
ATOM      2  C   UNL d   1     -24.767  22.047  21.367  0.00  0.00     0.027 A 
ATOM      3  C   UNL d   1     -26.030  21.707  21.776  0.00  0.00     0.039 A 
ATOM      4  C   UNL d   1     -26.472  22.367  22.865  0.00  0.00     0.083 A 
ATOM      5  S   UNL d   1     -25.289  23.455  23.438  0.00  0.00    -0.067 SA
ENDROOT
BRANCH   4   6
ATOM      6  N   UNL d   1     -27.723  22.183  23.448  0.00  0.00    -0.297 N 
ATOM      7  C   UNL d   1     -28.942  22.190  22.794  0.00  0.00     0.074 A 
ATOM      8  C   UNL d   1     -29.914  21.972  23.785  0.00  0.00     0.107 A 
ATOM      9  C   UNL d   1     -29.326  22.362  21.472  0.00  0.00     0.074 A 
ATOM     10  N   UNL d   1     -29.255  21.837  24.965  0.00  0.00    -0.239 NA
ATOM     11  C   UNL d   1     -31.264  21.918  23.424  0.00  0.00     0.068 A 
ATOM     12  C   UNL d   1     -27.975  21.963  24.771  0.00  0.00     0.216 A 
ATOM     13 CL   UNL d   1     -32.477  21.643  24.634  0.00  0.00    -0.082 Cl
ATOM     14  C   UNL d   1     -31.628  22.090  22.107  0.00  0.00     0.068 A 
ATOM     15  C   UNL d   1     -30.663  22.311  21.132  0.00  0.00     0.120 A 
ATOM     16  F   UNL d   1     -31.036  22.478  19.845  0.00  0.00    -0.206 F 
ENDBRANCH   4   6
BRANCH   1  17
ATOM     17  C   UNL d   1     -22.835  23.545  21.962  0.00  0.00     0.258 C 
ATOM     18  O   UNL d   1     -22.461  23.861  20.847  0.00  0.00    -0.267 OA
ATOM     19  N   UNL d   1     -22.012  23.702  23.017  0.00  0.00    -0.352 N 
ATOM     20  H   UNL d   1     -22.310  23.451  23.907  0.00  0.00     0.163 HD
BRANCH  19  21
ATOM     21  C   UNL d   1     -20.668  24.252  22.824  0.00  0.00     0.084 A 
ATOM     22  C   UNL d   1     -20.457  25.732  23.147  0.00  0.00     0.027 A 
ATOM     23  C   UNL d   1     -19.884  24.657  24.074  0.00  0.00     0.027 A 
ENDBRANCH  19  21
ENDBRANCH   1  17
TORSDOF 3
ENDMDL
