MODEL 1
REMARK VINA RESULT:     -10.6      0.000      0.000
REMARK  2 active torsions:
REMARK  status: ('A' for Active; 'I' for Inactive)
REMARK    1  A    between atoms: N_15  and  C_16 
REMARK    2  A    between atoms: C_19  and  C_20 
ROOT
ATOM      1  O   UNL d   1     -24.546  22.397  18.607  0.00  0.00    -0.285 OA
ATOM      2  C   UNL d   1     -24.455  22.712  19.777  0.00  0.00     0.216 A 
ATOM      3  C   UNL d   1     -25.501  22.304  20.741  0.00  0.00     0.031 A 
ATOM      4  C   UNL d   1     -26.596  21.558  20.317  0.00  0.00     0.016 A 
ATOM      5  C   UNL d   1     -27.569  21.181  21.228  0.00  0.00     0.001 A 
ATOM      6  C   UNL d   1     -27.460  21.543  22.558  0.00  0.00     0.001 A 
ATOM      7  C   UNL d   1     -26.374  22.285  22.996  0.00  0.00     0.016 A 
ATOM      8  C   UNL d   1     -25.390  22.671  22.094  0.00  0.00     0.031 A 
ATOM      9  C   UNL d   1     -24.226  23.465  22.547  0.00  0.00     0.214 A 
ATOM     10  O   UNL d   1     -24.125  23.784  23.716  0.00  0.00    -0.285 OA
ATOM     11  C   UNL d   1     -23.193  23.864  21.583  0.00  0.00     0.146 A 
ATOM     12  C   UNL d   1     -23.300  23.502  20.244  0.00  0.00     0.164 A 
ATOM     13  N   UNL d   1     -22.219  24.009  19.637  0.00  0.00    -0.125 NA
ATOM     14  N   UNL d   1     -21.503  24.634  20.506  0.00  0.00    -0.059 NA
ATOM     15  N   UNL d   1     -22.034  24.574  21.678  0.00  0.00    -0.209 N 
ENDROOT
BRANCH  15  16
ATOM     16  C   UNL d   1     -21.514  25.142  22.844  0.00  0.00     0.060 A 
ATOM     17  C   UNL d   1     -20.423  24.555  23.476  0.00  0.00     0.032 A 
ATOM     18  C   UNL d   1     -19.905  25.118  24.623  0.00  0.00     0.014 A 
ATOM     19  C   UNL d   1     -20.483  26.270  25.155  0.00  0.00    -0.026 A 
ATOM     20  C   UNL d   1     -21.576  26.857  24.520  0.00  0.00     0.014 A 
ATOM     21  C   UNL d   1     -22.087  26.294  23.370  0.00  0.00     0.032 A 
BRANCH  19  22
ATOM     22  C   UNL d   1     -19.931  26.873  26.393  0.00  0.00    -0.026 A 
ATOM     23  C   UNL d   1     -19.071  27.967  26.315  0.00  0.00     0.012 A 
ATOM     24  C   UNL d   1     -18.565  28.528  27.470  0.00  0.00     0.001 A 
ATOM     25  C   UNL d   1     -18.910  28.005  28.704  0.00  0.00     0.000 A 
ATOM     26  C   UNL d   1     -19.763  26.919  28.787  0.00  0.00     0.001 A 
ATOM     27  C   UNL d   1     -20.275  26.351  27.639  0.00  0.00     0.012 A 
ENDBRANCH  19  22
ENDBRANCH  15  16
TORSDOF 2
ENDMDL
