MODEL 1
REMARK VINA RESULT:     -10.5      0.000      0.000
REMARK  6 active torsions:
REMARK  status: ('A' for Active; 'I' for Inactive)
REMARK    1  A    between atoms: C_2  and  O_3 
REMARK    2  A    between atoms: C_2  and  C_32 
REMARK    3  A    between atoms: O_3  and  C_4 
REMARK    4  A    between atoms: C_6  and  N_7 
REMARK    5  A    between atoms: C_20  and  C_21 
REMARK       I    between atoms: C_21  and  N_23 
REMARK    6  A    between atoms: N_23  and  C_24 
ROOT
ATOM      1  C   UNL d   1     -24.693  23.397  22.672  0.00  0.00     0.087 A 
ATOM      2  C   UNL d   1     -25.956  22.855  22.840  0.00  0.00     0.073 A 
ATOM      3  C   UNL d   1     -26.810  23.368  23.806  0.00  0.00     0.104 A 
ATOM      4  C   UNL d   1     -26.402  24.431  24.611  0.00  0.00     0.146 A 
ATOM      5  F   UNL d   1     -27.239  24.926  25.549  0.00  0.00    -0.204 F 
ATOM      6  C   UNL d   1     -25.145  24.974  24.458  0.00  0.00     0.064 A 
ATOM      7  C   UNL d   1     -24.280  24.466  23.482  0.00  0.00     0.068 A 
ENDROOT
BRANCH   7   8
ATOM      8  C   UNL d   1     -22.938  25.047  23.310  0.00  0.00     0.259 C 
ATOM      9  O   UNL d   1     -22.791  26.048  22.635  0.00  0.00    -0.267 OA
ATOM     10  N   UNL d   1     -21.873  24.470  23.903  0.00  0.00    -0.318 N 
ATOM     11  H   UNL d   1     -21.997  23.701  24.480  0.00  0.00     0.169 HD
BRANCH  10  12
ATOM     12  C   UNL d   1     -20.587  24.981  23.683  0.00  0.00     0.113 A 
ATOM     13  C   UNL d   1     -20.091  25.992  24.498  0.00  0.00     0.146 A 
ATOM     14  C   UNL d   1     -18.822  26.494  24.277  0.00  0.00     0.045 A 
ATOM     15  F   UNL d   1     -20.847  26.483  25.504  0.00  0.00    -0.204 F 
ATOM     16  C   UNL d   1     -18.046  25.993  23.247  0.00  0.00     0.006 A 
ATOM     17  C   UNL d   1     -18.537  24.988  22.435  0.00  0.00     0.045 A 
ATOM     18  C   UNL d   1     -19.804  24.476  22.653  0.00  0.00     0.146 A 
ATOM     19  F   UNL d   1     -20.280  23.489  21.861  0.00  0.00    -0.204 F 
ENDBRANCH  10  12
ENDBRANCH   7   8
BRANCH   1  20
ATOM     20  O   UNL d   1     -23.857  22.897  21.729  0.00  0.00    -0.336 OA
BRANCH  20  21
ATOM     21  C   UNL d   1     -24.008  23.396  20.398  0.00  0.00     0.232 C 
ATOM     22  C   UNL d   1     -22.647  23.858  19.871  0.00  0.00     0.049 C 
BRANCH  21  23
ATOM     23  C   UNL d   1     -24.554  22.288  19.496  0.00  0.00     0.413 C 
ATOM     24  F   UNL d   1     -25.869  21.989  19.869  0.00  0.00    -0.168 F 
ATOM     25  F   UNL d   1     -24.533  22.718  18.165  0.00  0.00    -0.168 F 
ATOM     26  F   UNL d   1     -23.761  21.144  19.629  0.00  0.00    -0.168 F 
ENDBRANCH  21  23
ENDBRANCH  20  21
ENDBRANCH   1  20
BRANCH   3  27
ATOM     27  N   UNL d   1     -28.084  22.819  23.971  0.00  0.00    -0.178 N 
ATOM     28  C   UNL d   1     -28.492  22.036  24.995  0.00  0.00     0.351 A 
ATOM     29  N   UNL d   1     -29.784  21.752  24.788  0.00  0.00    -0.280 N 
ATOM     30  O   UNL d   1     -27.810  21.659  25.931  0.00  0.00    -0.244 OA
ATOM     31  C   UNL d   1     -30.174  22.332  23.595  0.00  0.00     0.155 A 
ATOM     32  C   UNL d   1     -30.702  20.981  25.636  0.00  0.00     0.161 C 
ATOM     33  N   UNL d   1     -29.175  22.975  23.101  0.00  0.00    -0.147 NA
ATOM     34  C   UNL d   1     -31.567  22.178  23.029  0.00  0.00     0.248 C 
ATOM     35  O   UNL d   1     -32.416  21.711  24.087  0.00  0.00    -0.382 OA
ATOM     36  C   UNL d   1     -31.905  20.567  24.776  0.00  0.00     0.188 C 
ENDBRANCH   3  27
TORSDOF 6
ENDMDL
