MODEL 1
REMARK VINA RESULT:     -10.7      0.000      0.000
REMARK  6 active torsions:
REMARK  status: ('A' for Active; 'I' for Inactive)
REMARK    1  A    between atoms: O_2  and  C_3 
REMARK    2  A    between atoms: C_5  and  N_6 
REMARK       I    between atoms: N_6  and  C_7 
REMARK    3  A    between atoms: C_7  and  C_9 
REMARK    4  A    between atoms: C_12  and  O_14 
REMARK    5  A    between atoms: C_18  and  C_19 
REMARK       I    between atoms: C_19  and  N_21 
REMARK    6  A    between atoms: N_21  and  C_22 
ROOT
ATOM      1  C   UNL d   1     -31.857  20.921  24.795  0.00  0.00     0.141 C 
ATOM      2  C   UNL d   1     -31.810  19.848  25.744  0.00  0.00     0.107 C 
ATOM      3  N   UNL d   1     -31.773  18.998  26.496  0.00  0.00    -0.191 NA
ATOM      4  C   UNL d   1     -33.042  21.268  24.218  0.00  0.00     0.065 C 
ATOM      5  C   UNL d   1     -34.302  20.524  24.578  0.00  0.00     0.077 C 
ENDROOT
BRANCH   1   6
ATOM      6  C   UNL d   1     -30.628  21.646  24.445  0.00  0.00     0.269 C 
ATOM      7  N   UNL d   1     -29.439  21.228  24.924  0.00  0.00    -0.320 N 
ATOM      8  H   UNL d   1     -29.402  20.493  25.555  0.00  0.00     0.169 HD
ATOM      9  O   UNL d   1     -30.683  22.624  23.722  0.00  0.00    -0.266 OA
BRANCH   7  10
ATOM     10  C   UNL d   1     -28.262  21.855  24.512  0.00  0.00     0.076 A 
ATOM     11  C   UNL d   1     -27.818  21.704  23.206  0.00  0.00     0.070 A 
ATOM     12  C   UNL d   1     -26.651  22.325  22.795  0.00  0.00     0.086 A 
ATOM     13  C   UNL d   1     -25.917  23.101  23.702  0.00  0.00     0.068 A 
ATOM     14  C   UNL d   1     -26.374  23.252  25.017  0.00  0.00     0.064 A 
ATOM     15  C   UNL d   1     -27.536  22.630  25.416  0.00  0.00     0.144 A 
ATOM     16  F   UNL d   1     -27.973  22.773  26.686  0.00  0.00    -0.204 F 
BRANCH  12  17
ATOM     17  O   UNL d   1     -26.217  22.178  21.517  0.00  0.00    -0.355 OA
ATOM     18  C   UNL d   1     -27.029  21.393  20.641  0.00  0.00     0.210 C 
ENDBRANCH  12  17
BRANCH  13  19
ATOM     19  C   UNL d   1     -24.672  23.759  23.273  0.00  0.00     0.259 C 
ATOM     20  O   UNL d   1     -24.549  24.963  23.390  0.00  0.00    -0.267 OA
ATOM     21  N   UNL d   1     -23.668  23.026  22.750  0.00  0.00    -0.319 N 
ATOM     22  H   UNL d   1     -23.795  22.080  22.582  0.00  0.00     0.169 HD
BRANCH  21  23
ATOM     23  C   UNL d   1     -22.442  23.633  22.449  0.00  0.00     0.091 A 
ATOM     24  C   UNL d   1     -22.151  24.000  21.141  0.00  0.00     0.040 A 
ATOM     25  C   UNL d   1     -20.941  24.599  20.846  0.00  0.00     0.021 A 
ATOM     26 BR   UNL d   1     -23.410  23.681  19.766  0.00  0.00    -0.049 Br
ATOM     27  C   UNL d   1     -20.019  24.832  21.850  0.00  0.00     0.005 A 
ATOM     28  C   UNL d   1     -20.305  24.470  23.153  0.00  0.00     0.045 A 
ATOM     29  C   UNL d   1     -21.517  23.875  23.457  0.00  0.00     0.144 A 
ATOM     30  F   UNL d   1     -21.797  23.524  24.732  0.00  0.00    -0.204 F 
ENDBRANCH  21  23
ENDBRANCH  13  19
ENDBRANCH   7  10
ENDBRANCH   1   6
BRANCH   4  31
ATOM     31  O   UNL d   1     -33.086  22.274  23.328  0.00  0.00    -0.364 OA
ATOM     32  H   UNL d   1     -33.928  22.426  22.878  0.00  0.00     0.217 HD
ENDBRANCH   4  31
TORSDOF 6
ENDMDL
