MODEL 1
REMARK VINA RESULT:     -10.0      0.000      0.000
REMARK  8 active torsions:
REMARK  status: ('A' for Active; 'I' for Inactive)
REMARK    1  A    between atoms: C_2  and  N_3 
REMARK    2  A    between atoms: C_4  and  C_5 
REMARK    3  A    between atoms: C_5  and  O_6 
REMARK    4  A    between atoms: N_8  and  C_9 
REMARK    5  A    between atoms: C_11  and  O_12 
REMARK    6  A    between atoms: O_12  and  C_13 
REMARK    7  A    between atoms: C_16  and  C_17 
REMARK       I    between atoms: C_17  and  N_19 
REMARK    8  A    between atoms: N_19  and  C_20 
ROOT
ATOM      1  C   UNL d   1     -28.314  22.238  22.480  0.00  0.00     0.197 A 
ATOM      2  N   UNL d   1     -27.658  22.972  23.368  0.00  0.00    -0.201 NA
ATOM      3  C   UNL d   1     -26.347  23.125  23.311  0.00  0.00     0.183 A 
ATOM      4  C   UNL d   1     -25.599  22.500  22.300  0.00  0.00     0.088 A 
ATOM      5  C   UNL d   1     -26.267  21.711  21.351  0.00  0.00     0.068 A 
ATOM      6  C   UNL d   1     -27.639  21.583  21.452  0.00  0.00     0.165 A 
ATOM      7  F   UNL d   1     -28.320  20.833  20.558  0.00  0.00    -0.202 F 
ENDROOT
BRANCH   4   8
ATOM      8  C   UNL d   1     -24.138  22.669  22.238  0.00  0.00     0.260 C 
ATOM      9  O   UNL d   1     -23.409  21.701  22.346  0.00  0.00    -0.267 OA
ATOM     10  N   UNL d   1     -23.608  23.895  22.062  0.00  0.00    -0.319 N 
ATOM     11  H   UNL d   1     -24.189  24.656  21.903  0.00  0.00     0.169 HD
BRANCH  10  12
ATOM     12  C   UNL d   1     -22.220  24.073  22.108  0.00  0.00     0.096 A 
ATOM     13  C   UNL d   1     -21.489  24.157  20.929  0.00  0.00     0.064 A 
ATOM     14  C   UNL d   1     -20.119  24.335  20.979  0.00  0.00     0.026 A 
ATOM     15 CL   UNL d   1     -22.297  24.044  19.397  0.00  0.00    -0.082 Cl
ATOM     16  C   UNL d   1     -19.474  24.420  22.198  0.00  0.00     0.005 A 
ATOM     17  C   UNL d   1     -20.197  24.332  23.374  0.00  0.00     0.045 A 
ATOM     18  C   UNL d   1     -21.568  24.157  23.334  0.00  0.00     0.144 A 
ATOM     19  F   UNL d   1     -22.274  24.070  24.482  0.00  0.00    -0.204 F 
ENDBRANCH  10  12
ENDBRANCH   4   8
BRANCH   3  20
ATOM     20  O   UNL d   1     -25.718  23.889  24.236  0.00  0.00    -0.329 OA
BRANCH  20  21
ATOM     21  C   UNL d   1     -26.040  25.281  24.254  0.00  0.00     0.122 C 
ATOM     22  C   UNL d   1     -26.500  25.680  25.658  0.00  0.00     0.040 C 
ATOM     23  C   UNL d   1     -24.802  26.095  23.873  0.00  0.00     0.040 C 
ENDBRANCH  20  21
ENDBRANCH   3  20
BRANCH   1  24
ATOM     24  N   UNL d   1     -29.696  22.116  22.581  0.00  0.00    -0.159 N 
ATOM     25  N   UNL d   1     -30.620  22.262  21.537  0.00  0.00    -0.145 NA
ATOM     26  C   UNL d   1     -31.806  22.071  22.020  0.00  0.00     0.154 A 
ATOM     27  N   UNL d   1     -31.701  21.812  23.364  0.00  0.00    -0.283 N 
ATOM     28  C   UNL d   1     -30.396  21.841  23.701  0.00  0.00     0.352 A 
ATOM     29  O   UNL d   1     -29.934  21.653  24.811  0.00  0.00    -0.244 OA
BRANCH  26  30
ATOM     30  C   UNL d   1     -33.093  22.132  21.236  0.00  0.00     0.244 C 
BRANCH  30  31
ATOM     31  O   UNL d   1     -33.486  20.810  20.863  0.00  0.00    -0.393 OA
ATOM     32  H   UNL d   1     -34.410  20.738  20.587  0.00  0.00     0.209 HD
ENDBRANCH  30  31
ENDBRANCH  26  30
BRANCH  27  33
ATOM     33  C   UNL d   1     -32.817  21.547  24.276  0.00  0.00     0.131 C 
ATOM     34  C   UNL d   1     -33.077  20.041  24.339  0.00  0.00     0.027 C 
ENDBRANCH  27  33
ENDBRANCH   1  24
TORSDOF 8
ENDMDL
