MODEL 1
REMARK VINA RESULT:     -10.7      0.000      0.000
REMARK  6 active torsions:
REMARK  status: ('A' for Active; 'I' for Inactive)
REMARK    1  A    between atoms: C_2  and  O_3 
REMARK    2  A    between atoms: C_2  and  C_4 
REMARK    3  A    between atoms: C_6  and  C_7 
REMARK    4  A    between atoms: C_12  and  N_13 
REMARK    5  A    between atoms: N_13  and  C_14 
REMARK    6  A    between atoms: C_17  and  C_18 
ROOT
ATOM      1  N   UNL d   1     -28.212  22.248  24.305  0.00  0.00    -0.353 N 
ATOM      2  H   UNL d   1     -28.230  21.970  25.235  0.00  0.00     0.166 HD
ENDROOT
BRANCH   1   3
ATOM      3  C   UNL d   1     -29.370  22.190  23.541  0.00  0.00     0.049 A 
ATOM      4  C   UNL d   1     -30.586  21.804  24.129  0.00  0.00     0.064 A 
ATOM      5  C   UNL d   1     -31.742  21.744  23.346  0.00  0.00     0.028 A 
ATOM      6  C   UNL d   1     -31.683  22.063  22.008  0.00  0.00    -0.053 A 
ATOM      7  C   UNL d   1     -30.481  22.444  21.430  0.00  0.00     0.010 A 
ATOM      8  C   UNL d   1     -29.331  22.508  22.189  0.00  0.00     0.031 A 
BRANCH   4   9
ATOM      9  C   UNL d   1     -30.641  21.464  25.561  0.00  0.00     0.178 C 
ATOM     10  O   UNL d   1     -31.467  21.991  26.280  0.00  0.00    -0.646 OA
BRANCH   9  11
ATOM     11  O   UNL d   1     -29.776  20.567  26.074  0.00  0.00    -0.773 OA
ATOM     12  H   UNL d   1     -28.895  20.530  25.679  0.00  0.00     0.167 HD
ENDBRANCH   9  11
ENDBRANCH   4   9
BRANCH   6  13
ATOM     13  C   UNL d   1     -32.931  21.996  21.166  0.00  0.00     0.018 A 
ATOM     14  C   UNL d   1     -33.714  20.682  21.166  0.00  0.00     0.010 A 
ATOM     15  C   UNL d   1     -34.272  21.906  21.895  0.00  0.00     0.010 A 
ENDBRANCH   6  13
ENDBRANCH   1   3
BRANCH   1  16
ATOM     16  C   UNL d   1     -27.021  22.708  23.737  0.00  0.00     0.068 A 
ATOM     17  C   UNL d   1     -26.459  23.919  24.139  0.00  0.00     0.150 A 
ATOM     18  N   UNL d   1     -25.332  24.321  23.579  0.00  0.00    -0.238 NA
ATOM     19  C   UNL d   1     -24.737  23.588  22.649  0.00  0.00     0.159 A 
ATOM     20  N   UNL d   1     -25.242  22.430  22.243  0.00  0.00    -0.238 NA
ATOM     21  C   UNL d   1     -26.362  21.962  22.761  0.00  0.00     0.150 A 
BRANCH  19  22
ATOM     22  C   UNL d   1     -23.472  24.074  22.046  0.00  0.00     0.012 A 
ATOM     23  C   UNL d   1     -23.236  23.905  20.683  0.00  0.00     0.015 A 
ATOM     24  C   UNL d   1     -22.057  24.361  20.128  0.00  0.00     0.001 A 
ATOM     25  C   UNL d   1     -21.111  24.983  20.922  0.00  0.00     0.000 A 
ATOM     26  C   UNL d   1     -21.340  25.153  22.276  0.00  0.00     0.001 A 
ATOM     27  C   UNL d   1     -22.518  24.708  22.840  0.00  0.00     0.015 A 
ENDBRANCH  19  22
ENDBRANCH   1  16
TORSDOF 6
ENDMDL
