MODEL 1
REMARK VINA RESULT:      -9.4      0.000      0.000
REMARK  3 active torsions:
REMARK  status: ('A' for Active; 'I' for Inactive)
REMARK    1  A    between atoms: C_3  and  C_4 
REMARK       I    between atoms: C_4  and  N_6 
REMARK    2  A    between atoms: N_6  and  C_7 
REMARK    3  A    between atoms: C_18  and  N_19 
ROOT
ATOM      1  C   UNL d   1     -29.068  22.543  22.716  0.00  0.00     0.256 C 
ATOM      2  O   UNL d   1     -28.901  23.524  22.019  0.00  0.00    -0.267 OA
ATOM      3  N   UNL d   1     -28.011  21.803  23.106  0.00  0.00    -0.323 N 
ATOM      4  H   UNL d   1     -28.151  20.976  23.592  0.00  0.00     0.169 HD
ENDROOT
BRANCH   1   5
ATOM      5  C   UNL d   1     -30.433  22.160  23.138  0.00  0.00     0.040 A 
ATOM      6  C   UNL d   1     -31.445  22.014  22.187  0.00  0.00    -0.013 A 
ATOM      7  C   UNL d   1     -31.149  22.245  20.727  0.00  0.00     0.052 C 
ATOM      8  C   UNL d   1     -32.714  21.651  22.586  0.00  0.00     0.109 A 
ATOM      9  C   UNL d   1     -32.989  21.444  23.927  0.00  0.00     0.037 A 
ATOM     10  C   UNL d   1     -31.992  21.593  24.874  0.00  0.00     0.003 A 
ATOM     11  C   UNL d   1     -30.716  21.949  24.487  0.00  0.00     0.018 A 
BRANCH   8  12
ATOM     12  N   UNL d   1     -33.788  21.490  21.579  0.00  0.00    -0.115 N 
ATOM     13  O   UNL d   1     -34.405  22.463  21.186  0.00  0.00    -0.532 OA
ATOM     14  O   UNL d   1     -34.053  20.383  21.145  0.00  0.00    -0.532 OA
ENDBRANCH   8  12
ENDBRANCH   1   5
BRANCH   3  15
ATOM     15  C   UNL d   1     -26.712  22.230  22.809  0.00  0.00     0.036 A 
ATOM     16  C   UNL d   1     -26.118  21.865  21.609  0.00  0.00     0.055 A 
ATOM     17  C   UNL d   1     -24.834  22.287  21.318  0.00  0.00     0.058 A 
ATOM     18  C   UNL d   1     -24.142  23.074  22.224  0.00  0.00     0.055 A 
ATOM     19 CL   UNL d   1     -24.089  21.831  19.818  0.00  0.00    -0.082 Cl
ATOM     20  C   UNL d   1     -24.735  23.443  23.418  0.00  0.00     0.028 A 
ATOM     21 CL   UNL d   1     -22.530  23.604  21.856  0.00  0.00    -0.083 Cl
ATOM     22  C   UNL d   1     -26.015  23.019  23.715  0.00  0.00     0.031 A 
ENDBRANCH   3  15
TORSDOF 3
ENDMDL
