MODEL 1
REMARK VINA RESULT:     -11.9      0.000      0.000
REMARK  4 active torsions:
REMARK  status: ('A' for Active; 'I' for Inactive)
REMARK       I    between atoms: C_2  and  N_3 
REMARK    1  A    between atoms: C_2  and  C_19 
REMARK    2  A    between atoms: N_3  and  C_4 
REMARK    3  A    between atoms: N_11  and  C_12 
REMARK    4  A    between atoms: C_20  and  O_21 
ROOT
ATOM      1  C   UNL d   1     -27.465  22.145  23.813  0.00  0.00     0.035 A 
ATOM      2  C   UNL d   1     -26.788  23.035  24.644  0.00  0.00     0.032 A 
ATOM      3  C   UNL d   1     -25.565  23.548  24.273  0.00  0.00     0.033 A 
ATOM      4  C   UNL d   1     -24.999  23.185  23.056  0.00  0.00     0.049 A 
ATOM      5  C   UNL d   1     -25.681  22.290  22.212  0.00  0.00    -0.005 A 
ATOM      6  C   UNL d   1     -24.831  22.117  21.030  0.00  0.00     0.031 A 
ATOM      7  C   UNL d   1     -23.740  22.877  21.215  0.00  0.00     0.098 A 
ATOM      8  N   UNL d   1     -23.821  23.523  22.420  0.00  0.00    -0.322 N 
ATOM      9  C   UNL d   1     -26.918  21.771  22.599  0.00  0.00     0.043 A 
ENDROOT
BRANCH   1  10
ATOM     10  N   UNL d   1     -28.706  21.629  24.207  0.00  0.00    -0.323 N 
ATOM     11  C   UNL d   1     -29.844  22.212  23.783  0.00  0.00     0.263 C 
ATOM     12  O   UNL d   1     -29.795  23.244  23.138  0.00  0.00    -0.267 OA
ATOM     13  H   UNL d   1     -28.746  20.851  24.785  0.00  0.00     0.169 HD
BRANCH  11  14
ATOM     14  C   UNL d   1     -31.138  21.607  24.098  0.00  0.00     0.115 A 
ATOM     15  C   UNL d   1     -32.200  21.378  23.199  0.00  0.00     0.078 A 
ATOM     16  N   UNL d   1     -33.208  20.797  23.913  0.00  0.00    -0.242 N 
ATOM     17  C   UNL d   1     -32.359  21.631  21.831  0.00  0.00     0.033 A 
ATOM     18  N   UNL d   1     -32.780  20.664  25.240  0.00  0.00    -0.141 NA
ATOM     19  C   UNL d   1     -34.375  20.459  23.296  0.00  0.00     0.119 A 
ATOM     20  C   UNL d   1     -31.563  21.138  25.359  0.00  0.00     0.200 A 
ATOM     21  C   UNL d   1     -34.551  20.694  21.976  0.00  0.00     0.019 A 
ATOM     22  C   UNL d   1     -33.532  21.289  21.222  0.00  0.00     0.004 A 
BRANCH  20  23
ATOM     23  O   UNL d   1     -30.838  21.177  26.505  0.00  0.00    -0.343 OA
ATOM     24  H   UNL d   1     -31.029  20.453  27.117  0.00  0.00     0.219 HD
ENDBRANCH  20  23
ENDBRANCH  11  14
ENDBRANCH   1  10
BRANCH   8  25
ATOM     25  C   UNL d   1     -22.853  24.398  22.930  0.00  0.00     0.039 A 
ATOM     26  C   UNL d   1     -21.591  23.922  23.263  0.00  0.00     0.030 A 
ATOM     27  C   UNL d   1     -20.639  24.788  23.766  0.00  0.00     0.002 A 
ATOM     28  C   UNL d   1     -20.941  26.125  23.939  0.00  0.00     0.000 A 
ATOM     29  C   UNL d   1     -22.197  26.602  23.610  0.00  0.00     0.002 A 
ATOM     30  C   UNL d   1     -23.151  25.743  23.100  0.00  0.00     0.030 A 
ENDBRANCH   8  25
TORSDOF 4
ENDMDL
