MODEL 1
REMARK VINA RESULT:      -9.4      0.000      0.000
REMARK  8 active torsions:
REMARK  status: ('A' for Active; 'I' for Inactive)
REMARK    1  A    between atoms: C_2  and  O_3 
REMARK    2  A    between atoms: C_2  and  C_29 
REMARK    3  A    between atoms: O_3  and  C_4 
REMARK    4  A    between atoms: C_6  and  N_7 
REMARK    5  A    between atoms: C_20  and  C_21 
REMARK       I    between atoms: C_21  and  N_23 
REMARK    6  A    between atoms: N_23  and  C_24 
REMARK    7  A    between atoms: C_24  and  C_25 
REMARK    8  A    between atoms: C_25  and  N_26 
ROOT
ATOM      1  C   UNL d   1     -23.503  24.044  23.199  0.00  0.00     0.087 A 
ATOM      2  C   UNL d   1     -24.794  23.742  23.600  0.00  0.00     0.073 A 
ATOM      3  C   UNL d   1     -25.614  22.976  22.783  0.00  0.00     0.104 A 
ATOM      4  C   UNL d   1     -25.144  22.507  21.557  0.00  0.00     0.146 A 
ATOM      5  F   UNL d   1     -25.948  21.761  20.768  0.00  0.00    -0.204 F 
ATOM      6  C   UNL d   1     -23.862  22.801  21.149  0.00  0.00     0.064 A 
ATOM      7  C   UNL d   1     -23.031  23.578  21.964  0.00  0.00     0.068 A 
ENDROOT
BRANCH   3   8
ATOM      8  N   UNL d   1     -26.915  22.672  23.192  0.00  0.00    -0.178 N 
ATOM      9  C   UNL d   1     -27.305  22.350  24.445  0.00  0.00     0.351 A 
ATOM     10  N   UNL d   1     -28.633  22.159  24.415  0.00  0.00    -0.284 N 
ATOM     11  O   UNL d   1     -26.583  22.249  25.421  0.00  0.00    -0.244 OA
ATOM     12  C   UNL d   1     -29.067  22.332  23.117  0.00  0.00     0.131 A 
ATOM     13  C   UNL d   1     -29.517  21.849  25.545  0.00  0.00     0.135 C 
ATOM     14  N   UNL d   1     -28.059  22.651  22.380  0.00  0.00    -0.149 NA
ATOM     15  C   UNL d   1     -30.502  22.148  22.681  0.00  0.00     0.081 C 
ATOM     16  C   UNL d   1     -31.391  22.218  23.930  0.00  0.00     0.009 C 
ATOM     17  C   UNL d   1     -30.828  21.274  24.998  0.00  0.00     0.021 C 
ENDBRANCH   3   8
BRANCH   1  18
ATOM     18  O   UNL d   1     -22.701  24.793  23.996  0.00  0.00    -0.345 OA
BRANCH  18  19
ATOM     19  C   UNL d   1     -22.384  26.111  23.542  0.00  0.00     0.129 C 
ATOM     20  C   UNL d   1     -23.672  26.925  23.404  0.00  0.00     0.040 C 
BRANCH  19  21
ATOM     21  C   UNL d   1     -21.459  26.789  24.555  0.00  0.00     0.015 C 
ATOM     22  C   UNL d   1     -22.247  27.835  25.346  0.00  0.00     0.007 C 
ATOM     23  C   UNL d   1     -21.321  28.514  26.357  0.00  0.00     0.000 C 
ATOM     24  C   UNL d   1     -20.759  27.464  27.318  0.00  0.00     0.000 C 
ATOM     25  C   UNL d   1     -19.971  26.418  26.527  0.00  0.00     0.000 C 
ATOM     26  C   UNL d   1     -20.897  25.739  25.516  0.00  0.00     0.007 C 
ENDBRANCH  19  21
ENDBRANCH  18  19
ENDBRANCH   1  18
BRANCH   7  27
ATOM     27  C   UNL d   1     -21.661  23.899  21.527  0.00  0.00     0.254 C 
ATOM     28  O   UNL d   1     -21.459  24.275  20.388  0.00  0.00    -0.268 OA
ATOM     29  N   UNL d   1     -20.632  23.777  22.389  0.00  0.00    -0.355 N 
ATOM     30  H   UNL d   1     -20.794  23.478  23.298  0.00  0.00     0.162 HD
BRANCH  29  31
ATOM     31  C   UNL d   1     -19.270  24.097  21.955  0.00  0.00     0.153 C 
BRANCH  31  32
ATOM     32  C   UNL d   1     -18.933  25.536  22.349  0.00  0.00     0.291 C 
BRANCH  32  33
ATOM     33  N   UNL d   1     -17.713  25.547  23.166  0.00  0.00     0.081 N 
ATOM     34  C   UNL d   1     -16.519  25.347  22.333  0.00  0.00     0.309 C 
ATOM     35  C   UNL d   1     -17.611  26.791  23.942  0.00  0.00     0.309 C 
ENDBRANCH  32  33
ENDBRANCH  31  32
ENDBRANCH  29  31
ENDBRANCH   7  27
TORSDOF 8
ENDMDL
