MODEL 1
REMARK VINA RESULT:      -9.9      0.000      0.000
REMARK  7 active torsions:
REMARK  status: ('A' for Active; 'I' for Inactive)
REMARK    1  A    between atoms: C_2  and  C_4 
REMARK    2  A    between atoms: N_6  and  C_7 
REMARK    3  A    between atoms: C_9  and  O_10 
REMARK    4  A    between atoms: C_22  and  N_23 
REMARK    5  A    between atoms: C_25  and  C_26 
REMARK    6  A    between atoms: C_26  and  O_27 
REMARK    7  A    between atoms: N_28  and  C_29 
ROOT
ATOM      1  C   UNL d   1     -25.744  24.212  23.972  0.00  0.00    -0.004 A 
ATOM      2  C   UNL d   1     -24.428  24.403  23.699  0.00  0.00     0.113 A 
ATOM      3  N   UNL d   1     -23.800  23.765  22.671  0.00  0.00    -0.286 N 
ATOM      4  C   UNL d   1     -24.440  22.903  21.857  0.00  0.00     0.263 A 
ATOM      5  O   UNL d   1     -23.839  22.355  20.950  0.00  0.00    -0.267 OA
ATOM      6  C   UNL d   1     -25.864  22.628  22.069  0.00  0.00     0.047 A 
ATOM      7  C   UNL d   1     -26.573  21.744  21.254  0.00  0.00     0.062 A 
ATOM      8  C   UNL d   1     -27.899  21.518  21.491  0.00  0.00     0.146 A 
ATOM      9  F   UNL d   1     -28.583  20.662  20.701  0.00  0.00    -0.204 F 
ATOM     10  C   UNL d   1     -28.557  22.165  22.541  0.00  0.00     0.103 A 
ATOM     11  C   UNL d   1     -27.875  23.050  23.359  0.00  0.00     0.048 A 
ATOM     12  C   UNL d   1     -26.523  23.286  23.134  0.00  0.00    -0.006 A 
ENDROOT
BRANCH  10  13
ATOM     13  N   UNL d   1     -29.915  21.919  22.764  0.00  0.00    -0.178 N 
ATOM     14  C   UNL d   1     -30.918  22.115  21.882  0.00  0.00     0.351 A 
ATOM     15  N   UNL d   1     -32.066  21.759  22.492  0.00  0.00    -0.283 N 
ATOM     16  O   UNL d   1     -30.807  22.538  20.746  0.00  0.00    -0.244 OA
ATOM     17  C   UNL d   1     -31.766  21.330  23.763  0.00  0.00     0.154 A 
ATOM     18  N   UNL d   1     -30.486  21.419  23.941  0.00  0.00    -0.147 NA
BRANCH  15  19
ATOM     19  C   UNL d   1     -33.405  21.813  21.900  0.00  0.00     0.131 C 
ATOM     20  C   UNL d   1     -33.808  20.416  21.425  0.00  0.00     0.027 C 
ENDBRANCH  15  19
BRANCH  17  21
ATOM     21  C   UNL d   1     -32.762  20.838  24.781  0.00  0.00     0.244 C 
BRANCH  21  22
ATOM     22  O   UNL d   1     -32.181  20.901  26.085  0.00  0.00    -0.393 OA
ATOM     23  H   UNL d   1     -31.646  21.692  26.239  0.00  0.00     0.209 HD
ENDBRANCH  21  22
ENDBRANCH  17  21
ENDBRANCH  10  13
BRANCH   1  24
ATOM     24  C   UNL d   1     -26.386  24.922  25.096  0.00  0.00    -0.059 C 
ATOM     25  C   UNL d   1     -26.288  26.242  25.190  0.00  0.00     0.019 C 
ATOM     26  C   UNL d   1     -27.151  24.146  26.137  0.00  0.00     0.048 C 
ENDBRANCH   1  24
BRANCH   3  27
ATOM     27  C   UNL d   1     -22.439  24.015  22.453  0.00  0.00     0.066 A 
ATOM     28  C   UNL d   1     -21.987  24.340  21.178  0.00  0.00     0.061 A 
ATOM     29  C   UNL d   1     -20.645  24.592  20.965  0.00  0.00     0.029 A 
ATOM     30 CL   UNL d   1     -23.110  24.436  19.858  0.00  0.00    -0.082 Cl
ATOM     31  C   UNL d   1     -19.749  24.510  22.013  0.00  0.00     0.038 A 
ATOM     32  C   UNL d   1     -20.194  24.180  23.286  0.00  0.00     0.070 A 
ATOM     33  C   UNL d   1     -21.540  23.932  23.506  0.00  0.00     0.068 A 
BRANCH  32  34
ATOM     34  O   UNL d   1     -19.310  24.099  24.315  0.00  0.00    -0.356 OA
ATOM     35  C   UNL d   1     -18.699  25.317  24.743  0.00  0.00     0.210 C 
ENDBRANCH  32  34
ENDBRANCH   3  27
TORSDOF 7
ENDMDL
