MODEL 1
REMARK VINA RESULT:     -11.7      0.000      0.000
REMARK  4 active torsions:
REMARK  status: ('A' for Active; 'I' for Inactive)
REMARK       I    between atoms: C_2  and  N_4 
REMARK    1  A    between atoms: N_4  and  C_5 
REMARK    2  A    between atoms: C_8  and  C_9 
REMARK    3  A    between atoms: C_12  and  C_13 
REMARK    4  A    between atoms: C_16  and  C_17 
REMARK       I    between atoms: C_17  and  N_18 
ROOT
ATOM      1  C   UNL d   1     -25.417  23.473  23.259  0.00  0.00    -0.025 A 
ATOM      2  C   UNL d   1     -25.936  22.478  22.430  0.00  0.00     0.013 A 
ATOM      3  C   UNL d   1     -27.202  21.987  22.654  0.00  0.00     0.016 A 
ATOM      4  C   UNL d   1     -27.971  22.492  23.704  0.00  0.00     0.010 A 
ATOM      5  C   UNL d   1     -27.454  23.492  24.531  0.00  0.00     0.016 A 
ATOM      6  C   UNL d   1     -26.185  23.978  24.308  0.00  0.00     0.013 A 
ENDROOT
BRANCH   4   7
ATOM      7  C   UNL d   1     -29.333  21.969  23.941  0.00  0.00     0.139 A 
ATOM      8  N   UNL d   1     -29.722  21.252  25.039  0.00  0.00    -0.338 N 
ATOM      9  C   UNL d   1     -31.062  20.955  24.874  0.00  0.00     0.064 A 
ATOM     10  H   UNL d   1     -29.164  21.001  25.790  0.00  0.00     0.167 HD
ATOM     11  C   UNL d   1     -31.440  21.522  23.644  0.00  0.00     0.101 A 
ATOM     12  C   UNL d   1     -31.994  20.266  25.637  0.00  0.00     0.032 A 
ATOM     13  N   UNL d   1     -30.355  22.126  23.130  0.00  0.00    -0.227 NA
ATOM     14  C   UNL d   1     -32.773  21.381  23.198  0.00  0.00     0.062 A 
ATOM     15  C   UNL d   1     -33.687  20.683  23.985  0.00  0.00     0.020 A 
ATOM     16  C   UNL d   1     -33.295  20.134  25.192  0.00  0.00     0.003 A 
BRANCH  14  17
ATOM     17  C   UNL d   1     -33.193  21.965  21.913  0.00  0.00     0.251 C 
ATOM     18  N   UNL d   1     -32.362  21.931  20.852  0.00  0.00    -0.366 N 
ATOM     19  H   UNL d   1     -31.487  21.519  20.936  0.00  0.00     0.159 HD
ATOM     20  H   UNL d   1     -32.638  22.316  20.007  0.00  0.00     0.159 HD
ATOM     21  O   UNL d   1     -34.289  22.481  21.809  0.00  0.00    -0.268 OA
ENDBRANCH  14  17
ENDBRANCH   4   7
BRANCH   1  22
ATOM     22  C   UNL d   1     -24.051  23.998  23.022  0.00  0.00    -0.008 A 
ATOM     23  C   UNL d   1     -23.793  25.371  23.115  0.00  0.00     0.017 A 
ATOM     24  C   UNL d   1     -22.504  25.813  22.892  0.00  0.00     0.051 A 
ATOM     25  C   UNL d   1     -21.514  24.887  22.574  0.00  0.00     0.129 A 
ATOM     26  N   UNL d   1     -21.791  23.596  22.494  0.00  0.00    -0.242 NA
ATOM     27  C   UNL d   1     -23.007  23.133  22.704  0.00  0.00     0.131 A 
BRANCH  25  28
ATOM     28  N   UNL d   1     -20.212  25.326  22.343  0.00  0.00    -0.312 N 
ATOM     29  C   UNL d   1     -19.326  25.369  23.357  0.00  0.00     0.219 C 
ATOM     30  C   UNL d   1     -17.890  25.738  23.088  0.00  0.00     0.117 C 
ATOM     31  O   UNL d   1     -19.685  25.117  24.488  0.00  0.00    -0.274 OA
ATOM     32  H   UNL d   1     -19.943  25.602  21.452  0.00  0.00     0.170 HD
ENDBRANCH  25  28
ENDBRANCH   1  22
TORSDOF 4
ENDMDL
