MODEL 1
REMARK VINA RESULT:     -12.1      0.000      0.000
REMARK  5 active torsions:
REMARK  status: ('A' for Active; 'I' for Inactive)
REMARK    1  A    between atoms: C_2  and  O_3 
REMARK    2  A    between atoms: C_2  and  C_4 
REMARK    3  A    between atoms: C_5  and  O_6 
REMARK    4  A    between atoms: C_7  and  C_8 
REMARK    5  A    between atoms: C_11  and  C_12 
ROOT
ATOM      1  C   UNL d   1     -30.554  21.354  24.576  0.00  0.00     0.085 A 
ATOM      2  C   UNL d   1     -29.207  21.668  24.394  0.00  0.00     0.113 A 
ATOM      3  C   UNL d   1     -28.775  22.150  23.141  0.00  0.00     0.102 A 
ATOM      4  N   UNL d   1     -29.600  22.305  22.128  0.00  0.00    -0.245 NA
ATOM      5  C   UNL d   1     -30.903  22.029  22.215  0.00  0.00     0.069 A 
ATOM      6  C   UNL d   1     -31.757  22.212  21.112  0.00  0.00     0.032 A 
ATOM      7  C   UNL d   1     -33.081  21.922  21.229  0.00  0.00     0.002 A 
ATOM      8  C   UNL d   1     -33.611  21.446  22.425  0.00  0.00     0.001 A 
ATOM      9  C   UNL d   1     -32.813  21.255  23.516  0.00  0.00     0.015 A 
ATOM     10  C   UNL d   1     -31.447  21.543  23.430  0.00  0.00     0.012 A 
ENDROOT
BRANCH   3  11
ATOM     11  C   UNL d   1     -27.345  22.489  22.957  0.00  0.00    -0.004 A 
ATOM     12  C   UNL d   1     -26.766  23.510  23.711  0.00  0.00     0.014 A 
ATOM     13  C   UNL d   1     -25.437  23.825  23.539  0.00  0.00     0.013 A 
ATOM     14  C   UNL d   1     -24.668  23.123  22.611  0.00  0.00    -0.026 A 
ATOM     15  C   UNL d   1     -25.246  22.102  21.856  0.00  0.00     0.013 A 
ATOM     16  C   UNL d   1     -26.574  21.783  22.031  0.00  0.00     0.014 A 
BRANCH  14  17
ATOM     17  C   UNL d   1     -23.236  23.461  22.425  0.00  0.00    -0.026 A 
ATOM     18  C   UNL d   1     -22.794  23.994  21.216  0.00  0.00     0.012 A 
ATOM     19  C   UNL d   1     -21.461  24.307  21.049  0.00  0.00     0.001 A 
ATOM     20  C   UNL d   1     -20.563  24.093  22.081  0.00  0.00     0.000 A 
ATOM     21  C   UNL d   1     -20.997  23.566  23.284  0.00  0.00     0.001 A 
ATOM     22  C   UNL d   1     -22.329  23.254  23.463  0.00  0.00     0.012 A 
ENDBRANCH  14  17
ENDBRANCH   3  11
BRANCH   2  23
ATOM     23  O   UNL d   1     -28.325  21.518  25.412  0.00  0.00    -0.357 OA
ATOM     24  H   UNL d   1     -27.461  21.181  25.136  0.00  0.00     0.217 HD
ENDBRANCH   2  23
BRANCH   1  25
ATOM     25  C   UNL d   1     -31.058  20.852  25.866  0.00  0.00     0.180 C 
ATOM     26  O   UNL d   1     -31.909  21.475  26.470  0.00  0.00    -0.646 OA
BRANCH  25  27
ATOM     27  O   UNL d   1     -30.575  19.702  26.376  0.00  0.00    -0.773 OA
ATOM     28  H   UNL d   1     -30.453  18.966  25.761  0.00  0.00     0.167 HD
ENDBRANCH  25  27
ENDBRANCH   1  25
TORSDOF 5
ENDMDL
