MODEL 1
REMARK VINA RESULT:      -8.8      0.000      0.000
REMARK  8 active torsions:
REMARK  status: ('A' for Active; 'I' for Inactive)
REMARK    1  A    between atoms: O_2  and  C_3 
REMARK    2  A    between atoms: C_7  and  O_8 
REMARK    3  A    between atoms: C_10  and  N_11 
REMARK       I    between atoms: N_11  and  C_12 
REMARK    4  A    between atoms: C_12  and  C_14 
REMARK    5  A    between atoms: C_18  and  N_19 
REMARK    6  A    between atoms: C_30  and  O_31 
REMARK    7  A    between atoms: O_31  and  C_32 
REMARK    8  A    between atoms: C_32  and  C_34 
ROOT
ATOM      1  C   UNL d   1     -19.540  25.251  23.291  0.00  0.00     0.068 A 
ATOM      2  C   UNL d   1     -19.912  24.753  22.038  0.00  0.00     0.064 A 
ATOM      3  C   UNL d   1     -21.160  24.202  21.860  0.00  0.00     0.146 A 
ATOM      4  F   UNL d   1     -21.519  23.722  20.648  0.00  0.00    -0.204 F 
ATOM      5  C   UNL d   1     -22.057  24.137  22.926  0.00  0.00     0.104 A 
ATOM      6  C   UNL d   1     -21.695  24.623  24.175  0.00  0.00     0.073 A 
ATOM      7  C   UNL d   1     -20.444  25.185  24.362  0.00  0.00     0.087 A 
ENDROOT
BRANCH   1   8
ATOM      8  C   UNL d   1     -18.206  25.841  23.486  0.00  0.00     0.259 C 
ATOM      9  N   UNL d   1     -17.398  25.377  24.460  0.00  0.00    -0.316 N 
ATOM     10  H   UNL d   1     -17.662  24.601  24.980  0.00  0.00     0.169 HD
ATOM     11  O   UNL d   1     -17.831  26.749  22.767  0.00  0.00    -0.267 OA
BRANCH   9  12
ATOM     12  C   UNL d   1     -16.177  26.015  24.724  0.00  0.00     0.142 A 
ATOM     13  C   UNL d   1     -14.993  25.565  24.138  0.00  0.00     0.197 A 
ATOM     14  N   UNL d   1     -13.858  26.201  24.411  0.00  0.00    -0.216 NA
ATOM     15  C   UNL d   1     -13.841  27.234  25.229  0.00  0.00     0.238 A 
ATOM     16  N   UNL d   1     -14.935  27.687  25.806  0.00  0.00    -0.216 NA
ATOM     17  C   UNL d   1     -16.112  27.112  25.583  0.00  0.00     0.197 A 
BRANCH  13  18
ATOM     18  O   UNL d   1     -15.000  24.500  23.301  0.00  0.00    -0.338 OA
ATOM     19  C   UNL d   1     -13.773  23.782  23.152  0.00  0.00     0.211 C 
ENDBRANCH  13  18
BRANCH  17  20
ATOM     20  O   UNL d   1     -17.234  27.585  26.181  0.00  0.00    -0.338 OA
ATOM     21  C   UNL d   1     -17.364  29.005  26.288  0.00  0.00     0.211 C 
ENDBRANCH  17  20
ENDBRANCH   9  12
ENDBRANCH   1   8
BRANCH   7  22
ATOM     22  O   UNL d   1     -20.090  25.665  25.581  0.00  0.00    -0.345 OA
BRANCH  22  23
ATOM     23  C   UNL d   1     -20.468  27.010  25.884  0.00  0.00     0.129 C 
ATOM     24  C   UNL d   1     -21.653  27.417  25.008  0.00  0.00     0.040 C 
BRANCH  23  25
ATOM     25  C   UNL d   1     -20.865  27.107  27.358  0.00  0.00     0.015 C 
ATOM     26  C   UNL d   1     -20.796  28.567  27.809  0.00  0.00     0.007 C 
ATOM     27  C   UNL d   1     -21.193  28.666  29.284  0.00  0.00     0.000 C 
ATOM     28  C   UNL d   1     -20.234  27.825  30.128  0.00  0.00     0.000 C 
ATOM     29  C   UNL d   1     -20.305  26.365  29.677  0.00  0.00     0.000 C 
ATOM     30  C   UNL d   1     -19.906  26.266  28.203  0.00  0.00     0.007 C 
ENDBRANCH  23  25
ENDBRANCH  22  23
ENDBRANCH   7  22
BRANCH   5  31
ATOM     31  N   UNL d   1     -23.323  23.576  22.738  0.00  0.00    -0.178 N 
ATOM     32  C   UNL d   1     -24.487  24.040  23.241  0.00  0.00     0.351 A 
ATOM     33  N   UNL d   1     -25.464  23.231  22.802  0.00  0.00    -0.284 N 
ATOM     34  O   UNL d   1     -24.625  25.014  23.960  0.00  0.00    -0.244 OA
ATOM     35  C   UNL d   1     -24.892  22.229  22.046  0.00  0.00     0.131 A 
ATOM     36  C   UNL d   1     -26.907  23.364  23.037  0.00  0.00     0.135 C 
ATOM     37  N   UNL d   1     -23.620  22.429  21.986  0.00  0.00    -0.149 NA
ATOM     38  C   UNL d   1     -25.675  21.097  21.423  0.00  0.00     0.081 C 
ATOM     39  C   UNL d   1     -27.152  21.510  21.376  0.00  0.00     0.009 C 
ATOM     40  C   UNL d   1     -27.576  22.013  22.759  0.00  0.00     0.021 C 
ENDBRANCH   5  31
TORSDOF 8
ENDMDL
