MODEL 1
REMARK VINA RESULT:     -11.6      0.000      0.000
REMARK  8 active torsions:
REMARK  status: ('A' for Active; 'I' for Inactive)
REMARK    1  A    between atoms: C_4  and  C_5 
REMARK    2  A    between atoms: C_5  and  O_7 
REMARK    3  A    between atoms: C_11  and  C_12 
REMARK    4  A    between atoms: C_15  and  C_16 
REMARK    5  A    between atoms: C_19  and  O_20 
REMARK    6  A    between atoms: O_20  and  C_21 
REMARK    7  A    between atoms: C_21  and  C_22 
REMARK    8  A    between atoms: C_22  and  C_23 
ROOT
ATOM      1  C   UNL d   1     -27.088  22.749  22.908  0.00  0.00     0.010 A 
ATOM      2  C   UNL d   1     -26.284  22.057  22.000  0.00  0.00     0.016 A 
ATOM      3  C   UNL d   1     -24.941  22.345  21.914  0.00  0.00     0.013 A 
ATOM      4  C   UNL d   1     -24.382  23.324  22.736  0.00  0.00    -0.026 A 
ATOM      5  C   UNL d   1     -25.187  24.020  23.639  0.00  0.00     0.013 A 
ATOM      6  C   UNL d   1     -26.531  23.732  23.727  0.00  0.00     0.016 A 
ENDROOT
BRANCH   4   7
ATOM      7  C   UNL d   1     -22.934  23.629  22.647  0.00  0.00    -0.026 A 
ATOM      8  C   UNL d   1     -22.466  24.525  21.686  0.00  0.00     0.015 A 
ATOM      9  C   UNL d   1     -21.118  24.805  21.605  0.00  0.00     0.037 A 
ATOM     10  C   UNL d   1     -20.228  24.197  22.480  0.00  0.00     0.068 A 
ATOM     11  C   UNL d   1     -20.691  23.304  23.438  0.00  0.00     0.037 A 
ATOM     12  C   UNL d   1     -22.038  23.023  23.527  0.00  0.00     0.015 A 
BRANCH  10  13
ATOM     13  O   UNL d   1     -18.901  24.476  22.399  0.00  0.00    -0.351 OA
BRANCH  13  14
ATOM     14  C   UNL d   1     -18.447  25.663  23.051  0.00  0.00     0.176 C 
BRANCH  14  15
ATOM     15  C   UNL d   1     -18.772  25.581  24.544  0.00  0.00     0.031 C 
BRANCH  15  16
ATOM     16  C   UNL d   1     -19.514  26.847  24.976  0.00  0.00    -0.009 C 
ATOM     17  C   UNL d   1     -21.009  26.546  25.104  0.00  0.00     0.034 C 
ATOM     18  C   UNL d   1     -21.736  27.800  25.596  0.00  0.00     0.270 C 
ATOM     19  N   UNL d   1     -21.187  28.208  26.895  0.00  0.00     0.083 N 
ATOM     20  C   UNL d   1     -19.763  28.548  26.787  0.00  0.00     0.270 C 
ATOM     21  H   UNL d   1     -21.337  27.493  27.592  0.00  0.00     0.315 HD
ATOM     22  C   UNL d   1     -18.977  27.316  26.331  0.00  0.00     0.034 C 
ENDBRANCH  15  16
ENDBRANCH  14  15
ENDBRANCH  13  14
ENDBRANCH  10  13
ENDBRANCH   4   7
BRANCH   1  23
ATOM     23  C   UNL d   1     -28.531  22.439  23.002  0.00  0.00     0.139 A 
ATOM     24  N   UNL d   1     -29.155  21.922  24.106  0.00  0.00    -0.338 N 
ATOM     25  C   UNL d   1     -30.488  21.784  23.794  0.00  0.00     0.080 A 
ATOM     26  H   UNL d   1     -28.737  21.697  24.952  0.00  0.00     0.167 HD
ATOM     27  C   UNL d   1     -31.609  21.320  24.498  0.00  0.00     0.067 A 
ATOM     28  C   UNL d   1     -30.632  22.227  22.468  0.00  0.00     0.087 A 
ATOM     29  C   UNL d   1     -32.855  21.304  23.873  0.00  0.00     0.027 A 
ATOM     30  C   UNL d   1     -32.986  21.741  22.567  0.00  0.00    -0.059 A 
ATOM     31  C   UNL d   1     -34.340  21.717  21.905  0.00  0.00     0.048 C 
ATOM     32  C   UNL d   1     -31.892  22.199  21.865  0.00  0.00     0.040 A 
ATOM     33  N   UNL d   1     -29.405  22.613  22.040  0.00  0.00    -0.228 NA
BRANCH  27  34
ATOM     34  C   UNL d   1     -31.470  20.854  25.889  0.00  0.00     0.178 C 
ATOM     35  O   UNL d   1     -32.107  19.893  26.275  0.00  0.00    -0.646 OA
BRANCH  34  36
ATOM     36  O   UNL d   1     -30.637  21.492  26.734  0.00  0.00    -0.773 OA
ATOM     37  H   UNL d   1     -30.878  21.496  27.670  0.00  0.00     0.167 HD
ENDBRANCH  34  36
ENDBRANCH  27  34
ENDBRANCH   1  23
TORSDOF 8
ENDMDL
