MODEL 1
REMARK VINA RESULT:      -9.3      0.000      0.000
REMARK  6 active torsions:
REMARK  status: ('A' for Active; 'I' for Inactive)
REMARK    1  A    between atoms: O_2  and  C_3 
REMARK    2  A    between atoms: C_5  and  N_6 
REMARK    3  A    between atoms: C_8  and  C_9 
REMARK    4  A    between atoms: C_14  and  C_15 
REMARK    5  A    between atoms: C_17  and  C_18 
REMARK    6  A    between atoms: C_18  and  O_21 
ROOT
ATOM      1  N   UNL d   1     -29.083  22.257  23.483  0.00  0.00    -0.288 N 
ATOM      2  C   UNL d   1     -28.589  22.845  24.616  0.00  0.00     0.109 A 
ATOM      3  C   UNL d   1     -27.310  23.236  24.722  0.00  0.00    -0.027 A 
ATOM      4  C   UNL d   1     -26.399  23.036  23.592  0.00  0.00    -0.011 A 
ATOM      5  C   UNL d   1     -25.060  23.420  23.648  0.00  0.00     0.031 A 
ATOM      6  C   UNL d   1     -24.245  23.210  22.543  0.00  0.00     0.053 A 
ATOM      7  C   UNL d   1     -24.758  22.608  21.386  0.00  0.00     0.131 A 
ATOM      8  F   UNL d   1     -23.949  22.406  20.323  0.00  0.00    -0.205 F 
ATOM      9  C   UNL d   1     -26.068  22.223  21.322  0.00  0.00     0.061 A 
ATOM     10  C   UNL d   1     -26.908  22.430  22.418  0.00  0.00     0.046 A 
ATOM     11  C   UNL d   1     -28.319  22.034  22.397  0.00  0.00     0.263 A 
ATOM     12  O   UNL d   1     -28.796  21.509  21.406  0.00  0.00    -0.267 OA
ENDROOT
BRANCH   6  13
ATOM     13  C   UNL d   1     -22.821  23.620  22.591  0.00  0.00     0.184 A 
ATOM     14  N   UNL d   1     -21.921  23.377  21.663  0.00  0.00    -0.150 NA
ATOM     15  N   UNL d   1     -20.714  23.937  22.115  0.00  0.00    -0.256 N 
ATOM     16  C   UNL d   1     -20.975  24.492  23.313  0.00  0.00     0.158 A 
ATOM     17  C   UNL d   1     -19.426  23.918  21.419  0.00  0.00     0.181 C 
ATOM     18  N   UNL d   1     -22.235  24.293  23.592  0.00  0.00    -0.208 NA
BRANCH  16  19
ATOM     19  C   UNL d   1     -19.981  25.215  24.185  0.00  0.00     0.112 C 
ATOM     20  C   UNL d   1     -20.707  25.825  25.386  0.00  0.00     0.054 C 
ATOM     21  C   UNL d   1     -19.307  26.326  23.378  0.00  0.00     0.054 C 
BRANCH  19  22
ATOM     22  O   UNL d   1     -18.992  24.293  24.645  0.00  0.00    -0.383 OA
ATOM     23  H   UNL d   1     -19.354  23.462  24.982  0.00  0.00     0.211 HD
ENDBRANCH  19  22
ENDBRANCH  16  19
ENDBRANCH   6  13
BRANCH   3  24
ATOM     24  C   UNL d   1     -26.814  23.878  25.992  0.00  0.00     0.013 C 
ATOM     25  C   UNL d   1     -26.847  25.400  25.842  0.00  0.00     0.015 C 
ATOM     26  C   UNL d   1     -27.713  23.461  27.159  0.00  0.00     0.015 C 
ENDBRANCH   3  24
BRANCH   1  27
ATOM     27  C   UNL d   1     -30.428  21.877  23.453  0.00  0.00     0.053 A 
ATOM     28  C   UNL d   1     -31.227  22.175  22.352  0.00  0.00     0.088 A 
ATOM     29  C   UNL d   1     -32.556  21.780  22.362  0.00  0.00     0.165 A 
ATOM     30  N   UNL d   1     -33.062  21.132  23.398  0.00  0.00    -0.236 NA
ATOM     31  C   UNL d   1     -32.332  20.835  24.457  0.00  0.00     0.128 A 
ATOM     32  C   UNL d   1     -31.001  21.187  24.521  0.00  0.00    -0.017 A 
ATOM     33  C   UNL d   1     -30.177  20.836  25.732  0.00  0.00     0.052 C 
BRANCH  29  34
ATOM     34  O   UNL d   1     -33.347  22.063  21.295  0.00  0.00    -0.339 OA
ATOM     35  C   UNL d   1     -34.597  22.701  21.565  0.00  0.00     0.211 C 
ENDBRANCH  29  34
ENDBRANCH   1  27
TORSDOF 6
ENDMDL
