MODEL 1
REMARK VINA RESULT:      -9.5      0.000      0.000
REMARK  9 active torsions:
REMARK  status: ('A' for Active; 'I' for Inactive)
REMARK    1  A    between atoms: O_2  and  C_3 
REMARK    2  A    between atoms: C_9  and  N_10 
REMARK       I    between atoms: N_10  and  C_11 
REMARK    3  A    between atoms: C_11  and  C_13 
REMARK    4  A    between atoms: C_17  and  N_18 
REMARK    5  A    between atoms: C_20  and  C_21 
REMARK    6  A    between atoms: C_21  and  O_22 
REMARK    7  A    between atoms: C_28  and  O_29 
REMARK    8  A    between atoms: O_29  and  C_30 
REMARK    9  A    between atoms: C_30  and  C_32 
ROOT
ATOM      1  C   UNL d   1     -24.126  24.635  23.591  0.00  0.00     0.068 A 
ATOM      2  C   UNL d   1     -25.053  25.125  24.519  0.00  0.00     0.064 A 
ATOM      3  C   UNL d   1     -26.291  24.537  24.631  0.00  0.00     0.146 A 
ATOM      4  F   UNL d   1     -27.187  25.015  25.523  0.00  0.00    -0.204 F 
ATOM      5  C   UNL d   1     -26.624  23.445  23.828  0.00  0.00     0.104 A 
ATOM      6  C   UNL d   1     -25.710  22.949  22.909  0.00  0.00     0.073 A 
ATOM      7  C   UNL d   1     -24.463  23.537  22.786  0.00  0.00     0.087 A 
ENDROOT
BRANCH   1   8
ATOM      8  C   UNL d   1     -22.801  25.265  23.466  0.00  0.00     0.259 C 
ATOM      9  N   UNL d   1     -21.719  24.674  24.009  0.00  0.00    -0.319 N 
ATOM     10  H   UNL d   1     -21.798  23.793  24.408  0.00  0.00     0.169 HD
ATOM     11  O   UNL d   1     -22.684  26.321  22.873  0.00  0.00    -0.267 OA
BRANCH   9  12
ATOM     12  C   UNL d   1     -20.481  25.328  23.994  0.00  0.00     0.094 A 
ATOM     13  C   UNL d   1     -20.168  26.276  24.967  0.00  0.00     0.191 A 
ATOM     14  N   UNL d   1     -19.000  26.893  24.955  0.00  0.00    -0.235 NA
ATOM     15  C   UNL d   1     -18.093  26.640  24.030  0.00  0.00     0.120 A 
ATOM     16  C   UNL d   1     -18.330  25.711  23.037  0.00  0.00     0.028 A 
ATOM     17  C   UNL d   1     -19.545  25.042  23.007  0.00  0.00    -0.029 A 
ATOM     18  C   UNL d   1     -19.839  24.025  21.934  0.00  0.00     0.050 C 
BRANCH  13  19
ATOM     19  O   UNL d   1     -21.073  26.566  25.938  0.00  0.00    -0.338 OA
ATOM     20  C   UNL d   1     -21.562  27.908  25.988  0.00  0.00     0.211 C 
ENDBRANCH  13  19
ENDBRANCH   9  12
ENDBRANCH   1   8
BRANCH   7  21
ATOM     21  O   UNL d   1     -23.569  23.053  21.888  0.00  0.00    -0.336 OA
BRANCH  21  22
ATOM     22  C   UNL d   1     -23.848  23.284  20.505  0.00  0.00     0.232 C 
ATOM     23  C   UNL d   1     -22.556  23.665  19.779  0.00  0.00     0.049 C 
BRANCH  22  24
ATOM     24  C   UNL d   1     -24.427  22.011  19.883  0.00  0.00     0.413 C 
ATOM     25  F   UNL d   1     -25.804  22.168  19.696  0.00  0.00    -0.168 F 
ATOM     26  F   UNL d   1     -23.813  21.776  18.648  0.00  0.00    -0.168 F 
ATOM     27  F   UNL d   1     -24.192  20.927  20.735  0.00  0.00    -0.168 F 
ENDBRANCH  22  24
ENDBRANCH  21  22
ENDBRANCH   7  21
BRANCH   5  28
ATOM     28  N   UNL d   1     -27.882  22.849  23.951  0.00  0.00    -0.178 N 
ATOM     29  C   UNL d   1     -28.319  22.115  24.996  0.00  0.00     0.351 A 
ATOM     30  N   UNL d   1     -29.581  21.730  24.718  0.00  0.00    -0.287 N 
ATOM     31  O   UNL d   1     -27.691  21.851  26.005  0.00  0.00    -0.244 OA
ATOM     32  C   UNL d   1     -29.922  22.227  23.484  0.00  0.00     0.154 A 
ATOM     33  C   UNL d   1     -30.440  20.918  25.582  0.00  0.00     0.163 C 
ATOM     34  N   UNL d   1     -28.920  22.897  23.012  0.00  0.00    -0.147 NA
BRANCH  32  35
ATOM     35  C   UNL d   1     -31.246  22.026  22.793  0.00  0.00     0.244 C 
BRANCH  35  36
ATOM     36  O   UNL d   1     -32.255  22.780  23.467  0.00  0.00    -0.393 OA
ATOM     37  H   UNL d   1     -31.933  23.601  23.863  0.00  0.00     0.209 HD
ENDBRANCH  35  36
ENDBRANCH  32  35
ENDBRANCH   5  28
TORSDOF 9
ENDMDL
