MODEL 1
REMARK VINA RESULT:      -9.5      0.000      0.000
REMARK  6 active torsions:
REMARK  status: ('A' for Active; 'I' for Inactive)
REMARK    1  A    between atoms: O_2  and  C_3 
REMARK    2  A    between atoms: C_6  and  C_7 
REMARK    3  A    between atoms: C_12  and  N_13 
REMARK       I    between atoms: N_13  and  C_14 
REMARK    4  A    between atoms: C_14  and  C_16 
REMARK    5  A    between atoms: C_22  and  C_23 
REMARK    6  A    between atoms: N_28  and  C_29 
ROOT
ATOM      1  C   UNL d   1     -21.275  24.762  22.767  0.00  0.00     0.061 A 
ATOM      2  C   UNL d   1     -20.325  24.187  21.922  0.00  0.00     0.019 A 
ATOM      3  C   UNL d   1     -18.991  24.532  22.034  0.00  0.00     0.003 A 
ATOM      4  C   UNL d   1     -18.577  25.447  22.980  0.00  0.00     0.034 A 
ATOM      5  C   UNL d   1     -19.508  26.038  23.839  0.00  0.00     0.087 A 
ATOM      6  N   UNL d   1     -19.403  26.944  24.841  0.00  0.00    -0.227 NA
ATOM      7  C   UNL d   1     -20.591  27.176  25.350  0.00  0.00     0.158 A 
ATOM      8  N   UNL d   1     -21.528  26.418  24.697  0.00  0.00    -0.336 N 
ATOM      9  H   UNL d   1     -22.481  26.399  24.879  0.00  0.00     0.168 HD
ATOM     10  C   UNL d   1     -20.868  25.693  23.732  0.00  0.00     0.078 A 
ENDROOT
BRANCH   1  11
ATOM     11  C   UNL d   1     -22.697  24.393  22.647  0.00  0.00     0.258 C 
ATOM     12  N   UNL d   1     -23.047  23.101  22.486  0.00  0.00    -0.320 N 
ATOM     13  H   UNL d   1     -22.361  22.421  22.389  0.00  0.00     0.169 HD
ATOM     14  O   UNL d   1     -23.556  25.254  22.692  0.00  0.00    -0.267 OA
BRANCH  12  15
ATOM     15  C   UNL d   1     -24.400  22.739  22.459  0.00  0.00     0.069 A 
ATOM     16  C   UNL d   1     -24.915  22.044  21.368  0.00  0.00     0.095 A 
ATOM     17  C   UNL d   1     -26.255  21.688  21.347  0.00  0.00     0.040 A 
ATOM     18  C   UNL d   1     -27.075  22.022  22.408  0.00  0.00     0.019 A 
ATOM     19  C   UNL d   1     -26.564  22.712  23.492  0.00  0.00     0.050 A 
ATOM     20  C   UNL d   1     -25.228  23.067  23.523  0.00  0.00     0.048 A 
BRANCH  16  21
ATOM     21  O   UNL d   1     -24.106  21.715  20.325  0.00  0.00    -0.354 OA
ATOM     22  C   UNL d   1     -24.290  22.438  19.107  0.00  0.00     0.210 C 
ENDBRANCH  16  21
BRANCH  19  23
ATOM     23  C   UNL d   1     -27.464  23.075  24.645  0.00  0.00     0.417 C 
ATOM     24  F   UNL d   1     -27.100  24.329  25.144  0.00  0.00    -0.166 F 
ATOM     25  F   UNL d   1     -28.791  23.115  24.204  0.00  0.00    -0.166 F 
ATOM     26  F   UNL d   1     -27.339  22.116  25.656  0.00  0.00    -0.166 F 
ENDBRANCH  19  23
ENDBRANCH  12  15
ENDBRANCH   1  11
BRANCH   7  27
ATOM     27  C   UNL d   1     -20.873  28.106  26.457  0.00  0.00     0.109 A 
ATOM     28  N   UNL d   1     -20.100  28.306  27.568  0.00  0.00    -0.209 N 
ATOM     29  N   UNL d   1     -20.734  29.270  28.361  0.00  0.00    -0.158 NA
ATOM     30  C   UNL d   1     -21.840  29.643  27.766  0.00  0.00     0.126 A 
ATOM     31  C   UNL d   1     -21.966  28.939  26.570  0.00  0.00     0.077 A 
ATOM     32 BR   UNL d   1     -23.067  30.922  28.426  0.00  0.00    -0.027 Br
BRANCH  28  33
ATOM     33  C   UNL d   1     -18.893  27.663  27.860  0.00  0.00     0.173 A 
ATOM     34  C   UNL d   1     -18.896  26.524  28.658  0.00  0.00     0.081 A 
ATOM     35  C   UNL d   1     -17.694  25.897  28.939  0.00  0.00     0.029 A 
ATOM     36 CL   UNL d   1     -20.385  25.899  29.295  0.00  0.00    -0.080 Cl
ATOM     37  C   UNL d   1     -16.528  26.432  28.410  0.00  0.00     0.021 A 
ATOM     38  C   UNL d   1     -16.602  27.566  27.624  0.00  0.00     0.119 A 
ATOM     39  N   UNL d   1     -17.761  28.140  27.369  0.00  0.00    -0.240 NA
ENDBRANCH  28  33
ENDBRANCH   7  27
TORSDOF 6
ENDMDL
