MODEL 1
REMARK VINA RESULT:     -10.0      0.000      0.000
REMARK  6 active torsions:
REMARK  status: ('A' for Active; 'I' for Inactive)
REMARK    1  A    between atoms: C_2  and  C_4 
REMARK    2  A    between atoms: N_6  and  C_7 
REMARK    3  A    between atoms: C_21  and  N_22 
REMARK    4  A    between atoms: C_24  and  C_25 
REMARK    5  A    between atoms: C_25  and  O_26 
REMARK    6  A    between atoms: N_27  and  C_28 
ROOT
ATOM      1  C   UNL d   1     -25.841  23.917  23.924  0.00  0.00    -0.004 A 
ATOM      2  C   UNL d   1     -24.517  24.066  23.656  0.00  0.00     0.113 A 
ATOM      3  N   UNL d   1     -23.920  23.458  22.591  0.00  0.00    -0.287 N 
ATOM      4  C   UNL d   1     -24.598  22.669  21.735  0.00  0.00     0.263 A 
ATOM      5  O   UNL d   1     -24.023  22.146  20.798  0.00  0.00    -0.267 OA
ATOM      6  C   UNL d   1     -26.032  22.445  21.939  0.00  0.00     0.047 A 
ATOM      7  C   UNL d   1     -26.780  21.636  21.081  0.00  0.00     0.062 A 
ATOM      8  C   UNL d   1     -28.115  21.455  21.310  0.00  0.00     0.146 A 
ATOM      9  F   UNL d   1     -28.835  20.672  20.479  0.00  0.00    -0.204 F 
ATOM     10  C   UNL d   1     -28.742  22.072  22.396  0.00  0.00     0.103 A 
ATOM     11  C   UNL d   1     -28.021  22.882  23.258  0.00  0.00     0.048 A 
ATOM     12  C   UNL d   1     -26.660  23.071  23.040  0.00  0.00    -0.006 A 
ENDROOT
BRANCH  10  13
ATOM     13  N   UNL d   1     -30.108  21.873  22.612  0.00  0.00    -0.178 N 
ATOM     14  C   UNL d   1     -31.097  22.068  21.715  0.00  0.00     0.351 A 
ATOM     15  N   UNL d   1     -32.261  21.767  22.324  0.00  0.00    -0.283 N 
ATOM     16  O   UNL d   1     -30.963  22.449  20.565  0.00  0.00    -0.244 OA
ATOM     17  C   UNL d   1     -31.986  21.372  23.611  0.00  0.00     0.154 A 
ATOM     18  N   UNL d   1     -30.706  21.430  23.800  0.00  0.00    -0.147 NA
BRANCH  15  19
ATOM     19  C   UNL d   1     -33.592  21.841  21.717  0.00  0.00     0.131 C 
ATOM     20  C   UNL d   1     -33.986  20.464  21.180  0.00  0.00     0.027 C 
ENDBRANCH  15  19
BRANCH  17  21
ATOM     21  C   UNL d   1     -33.005  20.944  24.634  0.00  0.00     0.244 C 
BRANCH  21  22
ATOM     22  O   UNL d   1     -32.401  20.924  25.929  0.00  0.00    -0.393 OA
ATOM     23  H   UNL d   1     -32.266  21.801  26.313  0.00  0.00     0.209 HD
ENDBRANCH  21  22
ENDBRANCH  17  21
ENDBRANCH  10  13
BRANCH   1  24
ATOM     24  C   UNL d   1     -26.449  24.593  25.086  0.00  0.00    -0.059 C 
ATOM     25  C   UNL d   1     -26.333  25.909  25.223  0.00  0.00     0.019 C 
ATOM     26  C   UNL d   1     -27.202  23.791  26.116  0.00  0.00     0.048 C 
ENDBRANCH   1  24
BRANCH   3  27
ATOM     27  C   UNL d   1     -22.551  23.661  22.380  0.00  0.00     0.051 A 
ATOM     28  C   UNL d   1     -22.119  24.419  21.300  0.00  0.00     0.004 A 
ATOM     29  C   UNL d   1     -20.765  24.617  21.095  0.00  0.00     0.124 A 
ATOM     30  C   UNL d   1     -23.123  25.025  20.354  0.00  0.00     0.054 C 
ATOM     31  C   UNL d   1     -19.843  24.061  21.966  0.00  0.00     0.043 A 
ATOM     32  F   UNL d   1     -20.343  25.355  20.045  0.00  0.00    -0.205 F 
ATOM     33  C   UNL d   1     -20.273  23.307  23.042  0.00  0.00     0.005 A 
ATOM     34  C   UNL d   1     -21.623  23.110  23.254  0.00  0.00     0.031 A 
ENDBRANCH   3  27
TORSDOF 6
ENDMDL
