MODEL 1
REMARK VINA RESULT:     -11.4      0.000      0.000
REMARK  3 active torsions:
REMARK  status: ('A' for Active; 'I' for Inactive)
REMARK    1  A    between atoms: C_4  and  C_5 
REMARK    2  A    between atoms: C_8  and  C_9 
REMARK    3  A    between atoms: C_25  and  O_26 
ROOT
ATOM      1  N   UNL d   1     -27.201  21.907  26.810  0.00  0.00    -0.191 NA
ATOM      2  C   UNL d   1     -27.969  21.955  25.975  0.00  0.00     0.104 C 
ATOM      3  C   UNL d   1     -28.938  22.014  24.922  0.00  0.00     0.108 A 
ATOM      4  C   UNL d   1     -28.549  22.378  23.612  0.00  0.00     0.091 A 
ATOM      5  N   UNL d   1     -29.424  22.434  22.626  0.00  0.00    -0.246 NA
ATOM      6  C   UNL d   1     -30.715  22.158  22.817  0.00  0.00     0.073 A 
ATOM      7  C   UNL d   1     -31.647  22.218  21.764  0.00  0.00     0.052 A 
ATOM      8  C   UNL d   1     -32.951  21.924  22.023  0.00  0.00     0.118 A 
ATOM      9  N   UNL d   1     -33.365  21.584  23.235  0.00  0.00    -0.272 NA
ATOM     10  C   UNL d   1     -32.553  21.507  24.265  0.00  0.00     0.133 A 
ATOM     11  C   UNL d   1     -31.191  21.790  24.102  0.00  0.00     0.045 A 
ATOM     12  C   UNL d   1     -30.282  21.720  25.182  0.00  0.00     0.102 A 
ENDROOT
BRANCH  12  13
ATOM     13  O   UNL d   1     -30.694  21.374  26.422  0.00  0.00    -0.358 OA
ATOM     14  H   UNL d   1     -31.135  22.089  26.903  0.00  0.00     0.217 HD
ENDBRANCH  12  13
BRANCH   4  15
ATOM     15  C   UNL d   1     -27.129  22.694  23.341  0.00  0.00    -0.006 A 
ATOM     16  C   UNL d   1     -26.554  23.846  23.879  0.00  0.00     0.014 A 
ATOM     17  C   UNL d   1     -25.232  24.138  23.630  0.00  0.00     0.013 A 
ATOM     18  C   UNL d   1     -24.469  23.288  22.829  0.00  0.00    -0.024 A 
ATOM     19  C   UNL d   1     -25.043  22.136  22.291  0.00  0.00     0.013 A 
ATOM     20  C   UNL d   1     -26.364  21.841  22.544  0.00  0.00     0.014 A 
BRANCH  18  21
ATOM     21  C   UNL d   1     -23.047  23.605  22.556  0.00  0.00    -0.001 A 
ATOM     22  C   UNL d   1     -22.613  23.904  21.261  0.00  0.00     0.062 A 
ATOM     23  C   UNL d   1     -21.278  24.193  21.052  0.00  0.00     0.141 A 
ATOM     24 CL   UNL d   1     -23.735  23.912  19.936  0.00  0.00    -0.082 Cl
ATOM     25  N   UNL d   1     -20.419  24.184  22.052  0.00  0.00    -0.271 NA
ATOM     26  C   UNL d   1     -20.789  23.913  23.289  0.00  0.00     0.117 A 
ATOM     27  C   UNL d   1     -22.102  23.613  23.587  0.00  0.00     0.033 A 
ENDBRANCH  18  21
ENDBRANCH   4  15
TORSDOF 3
ENDMDL
