MODEL 1
REMARK VINA RESULT:      -9.9      0.000      0.000
REMARK  9 active torsions:
REMARK  status: ('A' for Active; 'I' for Inactive)
REMARK    1  A    between atoms: C_2  and  C_3 
REMARK    2  A    between atoms: C_3  and  C_4 
REMARK    3  A    between atoms: C_4  and  O_6 
REMARK    4  A    between atoms: O_6  and  C_7 
REMARK    5  A    between atoms: C_9  and  N_10 
REMARK    6  A    between atoms: C_12  and  C_13 
REMARK    7  A    between atoms: C_13  and  O_16 
REMARK    8  A    between atoms: C_24  and  C_25 
REMARK       I    between atoms: C_25  and  N_27 
REMARK    9  A    between atoms: N_27  and  C_28 
ROOT
ATOM      1  C   UNL d   1     -26.263  23.147  23.364  0.00  0.00     0.087 A 
ATOM      2  C   UNL d   1     -27.628  22.987  23.535  0.00  0.00     0.073 A 
ATOM      3  C   UNL d   1     -28.340  22.147  22.691  0.00  0.00     0.104 A 
ATOM      4  C   UNL d   1     -27.688  21.468  21.662  0.00  0.00     0.146 A 
ATOM      5  F   UNL d   1     -28.388  20.653  20.842  0.00  0.00    -0.204 F 
ATOM      6  C   UNL d   1     -26.332  21.625  21.479  0.00  0.00     0.064 A 
ATOM      7  C   UNL d   1     -25.607  22.469  22.328  0.00  0.00     0.068 A 
ENDROOT
BRANCH   3   8
ATOM      8  N   UNL d   1     -29.715  21.984  22.869  0.00  0.00    -0.178 N 
ATOM      9  C   UNL d   1     -30.340  21.666  24.023  0.00  0.00     0.351 A 
ATOM     10  N   UNL d   1     -31.662  21.611  23.765  0.00  0.00    -0.286 N 
ATOM     11  O   UNL d   1     -29.807  21.469  25.100  0.00  0.00    -0.244 OA
ATOM     12  C   UNL d   1     -31.853  21.889  22.433  0.00  0.00     0.164 A 
ATOM     13  C   UNL d   1     -32.713  21.301  24.736  0.00  0.00     0.163 C 
ATOM     14  N   UNL d   1     -30.703  22.113  21.884  0.00  0.00    -0.146 NA
BRANCH  12  15
ATOM     15  C   UNL d   1     -33.185  21.925  21.728  0.00  0.00     0.112 C 
ATOM     16  C   UNL d   1     -33.834  20.540  21.793  0.00  0.00     0.054 C 
ATOM     17  C   UNL d   1     -34.095  22.946  22.413  0.00  0.00     0.054 C 
BRANCH  15  18
ATOM     18  O   UNL d   1     -32.992  22.298  20.362  0.00  0.00    -0.383 OA
ATOM     19  H   UNL d   1     -32.303  22.964  20.230  0.00  0.00     0.211 HD
ENDBRANCH  15  18
ENDBRANCH  12  15
ENDBRANCH   3   8
BRANCH   1  20
ATOM     20  O   UNL d   1     -25.565  23.963  24.194  0.00  0.00    -0.345 OA
BRANCH  20  21
ATOM     21  C   UNL d   1     -25.912  25.349  24.184  0.00  0.00     0.124 C 
ATOM     22  C   UNL d   1     -26.294  25.789  25.598  0.00  0.00     0.040 C 
BRANCH  21  23
ATOM     23  C   UNL d   1     -24.717  26.171  23.698  0.00  0.00     0.032 C 
BRANCH  23  24
ATOM     24  C   UNL d   1     -23.695  26.304  24.830  0.00  0.00    -0.002 C 
ATOM     25  C   UNL d   1     -22.475  27.079  24.326  0.00  0.00     0.005 C 
ENDBRANCH  23  24
ENDBRANCH  21  23
ENDBRANCH  20  21
ENDBRANCH   1  20
BRANCH   7  26
ATOM     26  C   UNL d   1     -24.156  22.639  22.136  0.00  0.00     0.259 C 
ATOM     27  O   UNL d   1     -23.444  21.665  21.986  0.00  0.00    -0.267 OA
ATOM     28  N   UNL d   1     -23.618  23.875  22.127  0.00  0.00    -0.319 N 
ATOM     29  H   UNL d   1     -24.194  24.655  22.158  0.00  0.00     0.169 HD
BRANCH  28  30
ATOM     30  C   UNL d   1     -22.228  24.033  22.066  0.00  0.00     0.096 A 
ATOM     31  C   UNL d   1     -21.615  24.347  20.860  0.00  0.00     0.064 A 
ATOM     32  C   UNL d   1     -20.242  24.508  20.803  0.00  0.00     0.026 A 
ATOM     33 CL   UNL d   1     -22.572  24.542  19.424  0.00  0.00    -0.082 Cl
ATOM     34  C   UNL d   1     -19.479  24.347  21.946  0.00  0.00     0.005 A 
ATOM     35  C   UNL d   1     -20.084  24.030  23.147  0.00  0.00     0.045 A 
ATOM     36  C   UNL d   1     -21.456  23.872  23.212  0.00  0.00     0.144 A 
ATOM     37  F   UNL d   1     -22.047  23.561  24.387  0.00  0.00    -0.204 F 
ENDBRANCH  28  30
ENDBRANCH   7  26
TORSDOF 9
ENDMDL
