MODEL 1
REMARK VINA RESULT:     -10.5      0.000      0.000
REMARK  7 active torsions:
REMARK  status: ('A' for Active; 'I' for Inactive)
REMARK    1  A    between atoms: N_4  and  C_5 
REMARK    2  A    between atoms: C_7  and  O_8 
REMARK    3  A    between atoms: O_8  and  C_9 
REMARK    4  A    between atoms: C_9  and  C_11 
REMARK    5  A    between atoms: C_15  and  C_16 
REMARK       I    between atoms: C_16  and  N_18 
REMARK    6  A    between atoms: N_18  and  C_19 
REMARK    7  A    between atoms: N_32  and  C_33 
ROOT
ATOM      1  C   UNL d   1     -26.806  23.407  23.825  0.00  0.00     0.104 A 
ATOM      2  C   UNL d   1     -25.971  22.851  22.867  0.00  0.00     0.073 A 
ATOM      3  C   UNL d   1     -24.701  23.365  22.671  0.00  0.00     0.087 A 
ATOM      4  C   UNL d   1     -24.258  24.443  23.452  0.00  0.00     0.068 A 
ATOM      5  C   UNL d   1     -25.105  24.994  24.419  0.00  0.00     0.064 A 
ATOM      6  C   UNL d   1     -26.368  24.479  24.602  0.00  0.00     0.146 A 
ATOM      7  F   UNL d   1     -27.185  25.013  25.537  0.00  0.00    -0.204 F 
ENDROOT
BRANCH   1   8
ATOM      8  N   UNL d   1     -28.090  22.889  24.016  0.00  0.00    -0.178 N 
ATOM      9  N   UNL d   1     -29.105  22.808  23.053  0.00  0.00    -0.149 NA
ATOM     10  C   UNL d   1     -30.142  22.265  23.606  0.00  0.00     0.127 A 
ATOM     11  C   UNL d   1     -31.455  21.985  22.921  0.00  0.00     0.093 C 
ATOM     12  N   UNL d   1     -29.850  21.988  24.919  0.00  0.00    -0.280 N 
ATOM     13  C   UNL d   1     -28.581  22.373  25.162  0.00  0.00     0.351 A 
ATOM     14  O   UNL d   1     -27.988  22.274  26.220  0.00  0.00    -0.244 OA
BRANCH  12  15
ATOM     15  C   UNL d   1     -30.760  21.374  25.888  0.00  0.00     0.096 C 
ATOM     16  C   UNL d   1     -32.175  21.257  25.283  0.00  0.00     0.026 C 
ATOM     17  C   UNL d   1     -32.710  19.903  25.825  0.00  0.00     0.002 C 
ATOM     18  C   UNL d   1     -31.451  19.003  25.791  0.00  0.00     0.002 C 
ATOM     19  C   UNL d   1     -30.300  19.942  26.210  0.00  0.00     0.026 C 
ENDBRANCH  12  15
ENDBRANCH   1   8
BRANCH   3  20
ATOM     20  O   UNL d   1     -23.885  22.825  21.731  0.00  0.00    -0.336 OA
BRANCH  20  21
ATOM     21  C   UNL d   1     -23.985  23.351  20.406  0.00  0.00     0.232 C 
ATOM     22  C   UNL d   1     -22.596  23.767  19.917  0.00  0.00     0.049 C 
BRANCH  21  23
ATOM     23  C   UNL d   1     -24.554  22.281  19.473  0.00  0.00     0.413 C 
ATOM     24  F   UNL d   1     -25.841  21.933  19.895  0.00  0.00    -0.168 F 
ATOM     25  F   UNL d   1     -24.610  22.782  18.169  0.00  0.00    -0.168 F 
ATOM     26  F   UNL d   1     -23.731  21.150  19.504  0.00  0.00    -0.168 F 
ENDBRANCH  21  23
ENDBRANCH  20  21
ENDBRANCH   3  20
BRANCH   4  27
ATOM     27  C   UNL d   1     -22.905  24.992  23.253  0.00  0.00     0.259 C 
ATOM     28  O   UNL d   1     -22.747  25.994  22.584  0.00  0.00    -0.267 OA
ATOM     29  N   UNL d   1     -21.843  24.381  23.815  0.00  0.00    -0.318 N 
ATOM     30  H   UNL d   1     -21.957  23.536  24.278  0.00  0.00     0.169 HD
BRANCH  29  31
ATOM     31  C   UNL d   1     -20.573  24.968  23.729  0.00  0.00     0.113 A 
ATOM     32  C   UNL d   1     -20.181  25.919  24.664  0.00  0.00     0.146 A 
ATOM     33  C   UNL d   1     -18.926  26.496  24.576  0.00  0.00     0.045 A 
ATOM     34  F   UNL d   1     -21.023  26.278  25.658  0.00  0.00    -0.204 F 
ATOM     35  C   UNL d   1     -18.063  26.128  23.561  0.00  0.00     0.006 A 
ATOM     36  C   UNL d   1     -18.450  25.183  22.629  0.00  0.00     0.045 A 
ATOM     37  C   UNL d   1     -19.701  24.596  22.713  0.00  0.00     0.146 A 
ATOM     38  F   UNL d   1     -20.075  23.668  21.805  0.00  0.00    -0.204 F 
ENDBRANCH  29  31
ENDBRANCH   4  27
TORSDOF 7
ENDMDL
