MODEL 1
REMARK VINA RESULT:      -8.3      0.000      0.000
REMARK  9 active torsions:
REMARK  status: ('A' for Active; 'I' for Inactive)
REMARK    1  A    between atoms: C_2  and  C_3 
REMARK    2  A    between atoms: N_5  and  C_6 
REMARK    3  A    between atoms: C_8  and  O_9 
REMARK    4  A    between atoms: O_9  and  C_10 
REMARK    5  A    between atoms: C_10  and  C_12 
REMARK    6  A    between atoms: C_18  and  C_19 
REMARK       I    between atoms: C_19  and  N_21 
REMARK    7  A    between atoms: N_21  and  C_22 
REMARK    8  A    between atoms: C_22  and  C_23 
REMARK    9  A    between atoms: C_22  and  C_25 
ROOT
ATOM      1  C   UNL d   1     -33.193  19.578  24.629  0.00  0.00     0.149 C 
ATOM      2  C   UNL d   1     -34.488  19.861  25.268  0.00  0.00     0.061 C 
ATOM      3  N   UNL d   1     -35.487  20.080  25.762  0.00  0.00    -0.197 NA
ENDROOT
BRANCH   1   4
ATOM      4  C   UNL d   1     -32.101  19.504  25.699  0.00  0.00     0.097 C 
BRANCH   4   5
ATOM      5  N   UNL d   1     -30.868  20.101  25.180  0.00  0.00    -0.351 N 
ATOM      6  C   UNL d   1     -30.500  21.336  25.573  0.00  0.00     0.254 C 
ATOM      7  O   UNL d   1     -31.190  21.956  26.359  0.00  0.00    -0.268 OA
ATOM      8  H   UNL d   1     -30.316  19.608  24.553  0.00  0.00     0.163 HD
BRANCH   6   9
ATOM      9  C   UNL d   1     -29.260  21.936  25.051  0.00  0.00     0.068 A 
ATOM     10  C   UNL d   1     -29.041  22.006  23.667  0.00  0.00     0.087 A 
ATOM     11  C   UNL d   1     -27.873  22.570  23.183  0.00  0.00     0.073 A 
ATOM     12  C   UNL d   1     -26.922  23.065  24.065  0.00  0.00     0.104 A 
ATOM     13  C   UNL d   1     -27.136  22.992  25.441  0.00  0.00     0.146 A 
ATOM     14  C   UNL d   1     -28.296  22.437  25.932  0.00  0.00     0.064 A 
ATOM     15  F   UNL d   1     -26.203  23.470  26.293  0.00  0.00    -0.204 F 
BRANCH  10  16
ATOM     16  O   UNL d   1     -29.971  21.523  22.805  0.00  0.00    -0.341 OA
BRANCH  16  17
ATOM     17  C   UNL d   1     -30.696  22.480  22.030  0.00  0.00     0.158 C 
ATOM     18  C   UNL d   1     -30.125  22.523  20.611  0.00  0.00     0.045 C 
BRANCH  17  19
ATOM     19  C   UNL d   1     -32.149  22.085  21.975  0.00  0.00    -0.029 A 
ATOM     20  C   UNL d   1     -33.075  22.746  22.760  0.00  0.00     0.010 A 
ATOM     21  C   UNL d   1     -34.408  22.383  22.710  0.00  0.00     0.001 A 
ATOM     22  C   UNL d   1     -34.815  21.360  21.875  0.00  0.00     0.000 A 
ATOM     23  C   UNL d   1     -33.889  20.699  21.089  0.00  0.00     0.001 A 
ATOM     24  C   UNL d   1     -32.557  21.064  21.136  0.00  0.00     0.010 A 
ENDBRANCH  17  19
ENDBRANCH  16  17
ENDBRANCH  10  16
BRANCH  12  25
ATOM     25  N   UNL d   1     -25.745  23.633  23.572  0.00  0.00    -0.178 N 
ATOM     26  N   UNL d   1     -25.323  24.957  23.753  0.00  0.00    -0.149 NA
ATOM     27  C   UNL d   1     -24.185  25.103  23.153  0.00  0.00     0.130 A 
ATOM     28  N   UNL d   1     -23.838  23.911  22.565  0.00  0.00    -0.289 N 
ATOM     29  C   UNL d   1     -24.805  23.010  22.831  0.00  0.00     0.351 A 
ATOM     30  C   UNL d   1     -22.623  23.660  21.787  0.00  0.00     0.162 C 
ATOM     31  O   UNL d   1     -24.826  21.847  22.470  0.00  0.00    -0.244 OA
BRANCH  27  32
ATOM     32  C   UNL d   1     -23.376  26.373  23.104  0.00  0.00     0.076 C 
ATOM     33  C   UNL d   1     -22.422  26.417  24.299  0.00  0.00     0.013 C 
ENDBRANCH  27  32
ENDBRANCH  12  25
ENDBRANCH   6   9
ENDBRANCH   4   5
BRANCH   4  34
ATOM     34  C   UNL d   1     -31.844  18.041  26.065  0.00  0.00     0.021 C 
ATOM     35  C   UNL d   1     -30.511  17.928  26.809  0.00  0.00     0.007 C 
ENDBRANCH   4  34
ENDBRANCH   1   4
TORSDOF 9
ENDMDL
