MODEL 1
REMARK VINA RESULT:     -10.5      0.000      0.000
REMARK  6 active torsions:
REMARK  status: ('A' for Active; 'I' for Inactive)
REMARK    1  A    between atoms: O_2  and  C_3 
REMARK    2  A    between atoms: C_8  and  C_9 
REMARK    3  A    between atoms: C_12  and  N_13 
REMARK       I    between atoms: N_13  and  C_14 
REMARK    4  A    between atoms: C_14  and  C_16 
REMARK    5  A    between atoms: C_17  and  C_18 
REMARK    6  A    between atoms: C_18  and  O_20 
ROOT
ATOM      1  C   UNL d   1     -28.351  22.343  23.821  0.00  0.00    -0.021 A 
ATOM      2  C   UNL d   1     -27.740  23.177  24.757  0.00  0.00     0.014 A 
ATOM      3  C   UNL d   1     -26.408  23.504  24.621  0.00  0.00     0.032 A 
ATOM      4  C   UNL d   1     -25.673  23.005  23.551  0.00  0.00     0.057 A 
ATOM      5  C   UNL d   1     -26.281  22.173  22.616  0.00  0.00     0.061 A 
ATOM      6 CL   UNL d   1     -25.362  21.550  21.281  0.00  0.00    -0.082 Cl
ATOM      7  C   UNL d   1     -27.613  21.838  22.752  0.00  0.00     0.038 A 
ENDROOT
BRANCH   4   8
ATOM      8  N   UNL d   1     -24.324  23.339  23.414  0.00  0.00    -0.322 N 
ATOM      9  C   UNL d   1     -23.959  24.631  23.295  0.00  0.00     0.253 C 
ATOM     10  O   UNL d   1     -24.790  25.511  23.408  0.00  0.00    -0.268 OA
ATOM     11  H   UNL d   1     -23.650  22.641  23.406  0.00  0.00     0.169 HD
BRANCH   9  12
ATOM     12  C   UNL d   1     -22.549  24.978  23.027  0.00  0.00     0.023 C 
ATOM     13  C   UNL d   1     -21.550  25.397  24.081  0.00  0.00     0.045 C 
ATOM     14  C   UNL d   1     -20.169  25.228  23.406  0.00  0.00     0.010 C 
ATOM     15  C   UNL d   1     -20.526  25.377  21.910  0.00  0.00     0.046 C 
ATOM     16  C   UNL d   1     -21.978  24.969  21.815  0.00  0.00     0.027 C 
BRANCH  16  17
ATOM     17  C   UNL d   1     -22.670  24.611  20.563  0.00  0.00     0.172 C 
ATOM     18  O   UNL d   1     -23.085  23.482  20.399  0.00  0.00    -0.646 OA
BRANCH  17  19
ATOM     19  O   UNL d   1     -22.843  25.538  19.599  0.00  0.00    -0.773 OA
ATOM     20  H   UNL d   1     -22.328  25.430  18.788  0.00  0.00     0.167 HD
ENDBRANCH  17  19
ENDBRANCH  16  17
ENDBRANCH   9  12
ENDBRANCH   4   8
BRANCH   1  21
ATOM     21  C   UNL d   1     -29.784  21.989  23.966  0.00  0.00     0.007 A 
ATOM     22  C   UNL d   1     -30.688  22.288  22.943  0.00  0.00     0.079 A 
ATOM     23  C   UNL d   1     -32.024  21.949  23.085  0.00  0.00     0.037 A 
ATOM     24  C   UNL d   1     -32.461  21.322  24.237  0.00  0.00     0.003 A 
ATOM     25  C   UNL d   1     -31.569  21.031  25.254  0.00  0.00     0.001 A 
ATOM     26  C   UNL d   1     -30.236  21.364  25.126  0.00  0.00     0.015 A 
BRANCH  22  27
ATOM     27  O   UNL d   1     -30.258  22.903  21.811  0.00  0.00    -0.355 OA
ATOM     28  C   UNL d   1     -30.652  22.322  20.566  0.00  0.00     0.210 C 
ENDBRANCH  22  27
ENDBRANCH   1  21
TORSDOF 6
ENDMDL
