MODEL 1
REMARK VINA RESULT:     -10.7      0.000      0.000
REMARK  6 active torsions:
REMARK  status: ('A' for Active; 'I' for Inactive)
REMARK    1  A    between atoms: C_8  and  N_9 
REMARK       I    between atoms: N_9  and  C_10 
REMARK    2  A    between atoms: C_10  and  C_12 
REMARK    3  A    between atoms: C_16  and  N_17 
REMARK    4  A    between atoms: C_28  and  O_29 
REMARK    5  A    between atoms: O_29  and  C_30 
REMARK    6  A    between atoms: C_30  and  C_32 
ROOT
ATOM      1  C   UNL d   1     -24.205  24.499  23.465  0.00  0.00     0.068 A 
ATOM      2  C   UNL d   1     -25.070  25.012  24.438  0.00  0.00     0.064 A 
ATOM      3  C   UNL d   1     -26.324  24.467  24.600  0.00  0.00     0.146 A 
ATOM      4  F   UNL d   1     -27.159  24.967  25.536  0.00  0.00    -0.204 F 
ATOM      5  C   UNL d   1     -26.736  23.406  23.794  0.00  0.00     0.104 A 
ATOM      6  C   UNL d   1     -25.885  22.891  22.827  0.00  0.00     0.073 A 
ATOM      7  C   UNL d   1     -24.622  23.431  22.657  0.00  0.00     0.087 A 
ENDROOT
BRANCH   1   8
ATOM      8  C   UNL d   1     -22.863  25.078  23.289  0.00  0.00     0.259 C 
ATOM      9  N   UNL d   1     -21.794  24.489  23.860  0.00  0.00    -0.320 N 
ATOM     10  H   UNL d   1     -21.891  23.629  24.299  0.00  0.00     0.169 HD
ATOM     11  O   UNL d   1     -22.718  26.089  22.628  0.00  0.00    -0.267 OA
BRANCH   9  12
ATOM     12  C   UNL d   1     -20.544  25.116  23.819  0.00  0.00     0.081 A 
ATOM     13  C   UNL d   1     -19.604  24.752  22.866  0.00  0.00     0.058 A 
ATOM     14  C   UNL d   1     -19.934  23.672  21.868  0.00  0.00     0.073 C 
ATOM     15  N   UNL d   1     -18.425  25.342  22.823  0.00  0.00    -0.264 NA
ATOM     16  C   UNL d   1     -18.091  26.292  23.676  0.00  0.00     0.118 A 
ATOM     17  C   UNL d   1     -18.973  26.709  24.654  0.00  0.00     0.045 A 
ATOM     18  C   UNL d   1     -20.226  26.121  24.732  0.00  0.00     0.064 A 
ATOM     19 CL   UNL d   1     -21.369  26.618  25.941  0.00  0.00    -0.082 Cl
ENDBRANCH   9  12
ENDBRANCH   1   8
BRANCH   7  20
ATOM     20  O   UNL d   1     -23.788  22.928  21.711  0.00  0.00    -0.336 OA
BRANCH  20  21
ATOM     21  C   UNL d   1     -23.968  23.397  20.373  0.00  0.00     0.232 C 
ATOM     22  C   UNL d   1     -22.620  23.848  19.806  0.00  0.00     0.049 C 
BRANCH  21  23
ATOM     23  C   UNL d   1     -24.533  22.269  19.508  0.00  0.00     0.413 C 
ATOM     24  F   UNL d   1     -25.846  21.992  19.903  0.00  0.00    -0.168 F 
ATOM     25  F   UNL d   1     -24.522  22.660  18.165  0.00  0.00    -0.168 F 
ATOM     26  F   UNL d   1     -23.747  21.122  19.666  0.00  0.00    -0.168 F 
ENDBRANCH  21  23
ENDBRANCH  20  21
ENDBRANCH   7  20
BRANCH   5  27
ATOM     27  N   UNL d   1     -28.010  22.858  23.963  0.00  0.00    -0.178 N 
ATOM     28  C   UNL d   1     -28.416  22.077  24.988  0.00  0.00     0.351 A 
ATOM     29  N   UNL d   1     -29.709  21.792  24.785  0.00  0.00    -0.280 N 
ATOM     30  O   UNL d   1     -27.733  21.701  25.925  0.00  0.00    -0.244 OA
ATOM     31  C   UNL d   1     -30.101  22.371  23.592  0.00  0.00     0.155 A 
ATOM     32  C   UNL d   1     -30.625  21.022  25.636  0.00  0.00     0.161 C 
ATOM     33  N   UNL d   1     -29.103  23.013  23.095  0.00  0.00    -0.147 NA
ATOM     34  C   UNL d   1     -31.494  22.216  23.029  0.00  0.00     0.248 C 
ATOM     35  O   UNL d   1     -32.342  21.751  24.090  0.00  0.00    -0.382 OA
ATOM     36  C   UNL d   1     -31.829  20.607  24.780  0.00  0.00     0.188 C 
ENDBRANCH   5  27
TORSDOF 6
ENDMDL
