MODEL 1
REMARK VINA RESULT:     -10.1      0.000      0.000
REMARK  6 active torsions:
REMARK  status: ('A' for Active; 'I' for Inactive)
REMARK    1  A    between atoms: C_2  and  N_3 
REMARK    2  A    between atoms: C_4  and  C_5 
REMARK    3  A    between atoms: C_5  and  O_6 
REMARK    4  A    between atoms: N_8  and  C_9 
REMARK    5  A    between atoms: C_12  and  C_13 
REMARK    6  A    between atoms: N_17  and  C_18 
ROOT
ATOM      1  C   UNL d   1     -29.084  22.096  22.020  0.00  0.00     0.103 A 
ATOM      2  C   UNL d   1     -28.359  22.839  22.936  0.00  0.00     0.048 A 
ATOM      3  C   UNL d   1     -26.977  22.940  22.794  0.00  0.00    -0.010 A 
ATOM      4  C   UNL d   1     -26.157  23.712  23.730  0.00  0.00    -0.028 A 
ATOM      5  C   UNL d   1     -24.829  23.781  23.542  0.00  0.00     0.103 A 
ATOM      6  N   UNL d   1     -24.203  23.145  22.508  0.00  0.00    -0.319 N 
ATOM      7  C   UNL d   1     -24.878  22.413  21.599  0.00  0.00     0.259 A 
ATOM      8  O   UNL d   1     -24.284  21.865  20.687  0.00  0.00    -0.267 OA
ATOM      9  C   UNL d   1     -26.332  22.285  21.718  0.00  0.00     0.046 A 
ATOM     10  C   UNL d   1     -27.084  21.541  20.807  0.00  0.00     0.062 A 
ATOM     11  C   UNL d   1     -28.439  21.451  20.960  0.00  0.00     0.146 A 
ATOM     12  F   UNL d   1     -29.164  20.730  20.077  0.00  0.00    -0.204 F 
ENDROOT
BRANCH   1  13
ATOM     13  N   UNL d   1     -30.471  21.989  22.155  0.00  0.00    -0.178 N 
ATOM     14  N   UNL d   1     -31.415  22.071  21.122  0.00  0.00    -0.147 NA
ATOM     15  C   UNL d   1     -32.592  21.925  21.640  0.00  0.00     0.154 A 
ATOM     16  N   UNL d   1     -32.461  21.747  22.996  0.00  0.00    -0.283 N 
ATOM     17  C   UNL d   1     -31.149  21.784  23.303  0.00  0.00     0.351 A 
ATOM     18  O   UNL d   1     -30.665  21.656  24.413  0.00  0.00    -0.244 OA
BRANCH  15  19
ATOM     19  C   UNL d   1     -33.894  21.946  20.881  0.00  0.00     0.244 C 
BRANCH  19  20
ATOM     20  O   UNL d   1     -34.688  23.045  21.329  0.00  0.00    -0.393 OA
ATOM     21  H   UNL d   1     -35.121  23.535  20.616  0.00  0.00     0.209 HD
ENDBRANCH  19  20
ENDBRANCH  15  19
BRANCH  16  22
ATOM     22  C   UNL d   1     -33.559  21.546  23.945  0.00  0.00     0.131 C 
ATOM     23  C   UNL d   1     -33.597  20.080  24.378  0.00  0.00     0.027 C 
ENDBRANCH  16  22
ENDBRANCH   1  13
BRANCH   4  24
ATOM     24  C   UNL d   1     -26.798  24.429  24.891  0.00  0.00     0.013 C 
ATOM     25  C   UNL d   1     -25.979  25.675  25.235  0.00  0.00     0.015 C 
ATOM     26  C   UNL d   1     -26.844  23.497  26.103  0.00  0.00     0.015 C 
ENDBRANCH   4  24
BRANCH   6  27
ATOM     27  C   UNL d   1     -22.749  23.267  22.380  0.00  0.00     0.092 C 
ATOM     28  C   UNL d   1     -22.416  24.309  21.311  0.00  0.00     0.026 C 
ATOM     29  C   UNL d   1     -20.898  24.435  21.178  0.00  0.00     0.002 C 
ATOM     30  C   UNL d   1     -20.302  24.871  22.518  0.00  0.00     0.000 C 
ATOM     31  C   UNL d   1     -20.635  23.829  23.587  0.00  0.00     0.002 C 
ATOM     32  C   UNL d   1     -22.153  23.702  23.720  0.00  0.00     0.026 C 
ENDBRANCH   6  27
TORSDOF 6
ENDMDL
