MODEL 1
REMARK VINA RESULT:     -11.4      0.000      0.000
REMARK  7 active torsions:
REMARK  status: ('A' for Active; 'I' for Inactive)
REMARK    1  A    between atoms: C_2  and  O_3 
REMARK    2  A    between atoms: C_2  and  C_36 
REMARK    3  A    between atoms: O_3  and  C_4 
REMARK    4  A    between atoms: C_6  and  N_7 
REMARK    5  A    between atoms: C_20  and  C_21 
REMARK       I    between atoms: C_21  and  N_23 
REMARK    6  A    between atoms: N_23  and  C_24 
REMARK    7  A    between atoms: C_29  and  O_30 
ROOT
ATOM      1  C   UNL d   1     -24.730  23.371  22.700  0.00  0.00     0.087 A 
ATOM      2  C   UNL d   1     -25.989  22.819  22.860  0.00  0.00     0.073 A 
ATOM      3  C   UNL d   1     -26.862  23.339  23.806  0.00  0.00     0.104 A 
ATOM      4  C   UNL d   1     -26.472  24.415  24.603  0.00  0.00     0.146 A 
ATOM      5  F   UNL d   1     -27.327  24.915  25.523  0.00  0.00    -0.204 F 
ATOM      6  C   UNL d   1     -25.220  24.967  24.457  0.00  0.00     0.064 A 
ATOM      7  C   UNL d   1     -24.334  24.450  23.506  0.00  0.00     0.068 A 
ENDROOT
BRANCH   7   8
ATOM      8  C   UNL d   1     -22.994  25.038  23.346  0.00  0.00     0.259 C 
ATOM      9  O   UNL d   1     -22.849  26.053  22.693  0.00  0.00    -0.267 OA
ATOM     10  N   UNL d   1     -21.927  24.451  23.924  0.00  0.00    -0.323 N 
ATOM     11  H   UNL d   1     -22.029  23.601  24.382  0.00  0.00     0.169 HD
BRANCH  10  12
ATOM     12  C   UNL d   1     -20.672  25.065  23.863  0.00  0.00     0.040 A 
ATOM     13  C   UNL d   1     -19.743  24.636  22.933  0.00  0.00     0.061 A 
ATOM     14  C   UNL d   1     -18.494  25.248  22.874  0.00  0.00     0.070 A 
ATOM     15  C   UNL d   1     -18.193  26.299  23.761  0.00  0.00     0.085 A 
ATOM     16  N   UNL d   1     -17.385  25.061  22.089  0.00  0.00    -0.275 N 
ATOM     17  C   UNL d   1     -19.149  26.718  24.695  0.00  0.00     0.135 A 
ATOM     18  C   UNL d   1     -16.828  26.721  23.447  0.00  0.00     0.197 A 
ATOM     19  C   UNL d   1     -20.369  26.107  24.740  0.00  0.00     0.073 A 
ATOM     20  F   UNL d   1     -18.864  27.726  25.548  0.00  0.00    -0.205 F 
ATOM     21  N   UNL d   1     -16.398  25.977  22.464  0.00  0.00    -0.148 NA
ATOM     22  H   UNL d   1     -17.301  24.401  21.383  0.00  0.00     0.189 HD
BRANCH  18  23
ATOM     23  O   UNL d   1     -16.134  27.714  24.065  0.00  0.00    -0.343 OA
ATOM     24  H   UNL d   1     -16.658  28.507  24.243  0.00  0.00     0.219 HD
ENDBRANCH  18  23
ENDBRANCH  10  12
ENDBRANCH   7   8
BRANCH   1  25
ATOM     25  O   UNL d   1     -23.878  22.868  21.771  0.00  0.00    -0.336 OA
BRANCH  25  26
ATOM     26  C   UNL d   1     -23.961  23.412  20.452  0.00  0.00     0.232 C 
ATOM     27  C   UNL d   1     -22.567  23.843  19.991  0.00  0.00     0.049 C 
BRANCH  26  28
ATOM     28  C   UNL d   1     -24.510  22.350  19.497  0.00  0.00     0.413 C 
ATOM     29  F   UNL d   1     -25.785  21.958  19.918  0.00  0.00    -0.168 F 
ATOM     30  F   UNL d   1     -24.588  22.883  18.205  0.00  0.00    -0.168 F 
ATOM     31  F   UNL d   1     -23.658  21.241  19.493  0.00  0.00    -0.168 F 
ENDBRANCH  26  28
ENDBRANCH  25  26
ENDBRANCH   1  25
BRANCH   3  32
ATOM     32  N   UNL d   1     -28.133  22.783  23.960  0.00  0.00    -0.178 N 
ATOM     33  C   UNL d   1     -28.547  22.001  24.981  0.00  0.00     0.351 A 
ATOM     34  N   UNL d   1     -29.837  21.703  24.761  0.00  0.00    -0.284 N 
ATOM     35  O   UNL d   1     -27.873  21.634  25.928  0.00  0.00    -0.244 OA
ATOM     36  C   UNL d   1     -30.218  22.280  23.566  0.00  0.00     0.131 A 
ATOM     37  C   UNL d   1     -30.735  20.927  25.625  0.00  0.00     0.135 C 
ATOM     38  N   UNL d   1     -29.220  22.937  23.085  0.00  0.00    -0.149 NA
ATOM     39  C   UNL d   1     -31.593  22.120  22.960  0.00  0.00     0.081 C 
ATOM     40  C   UNL d   1     -32.550  21.656  24.065  0.00  0.00     0.009 C 
ATOM     41  C   UNL d   1     -31.931  20.456  24.790  0.00  0.00     0.021 C 
ENDBRANCH   3  32
TORSDOF 7
ENDMDL
