MODEL 1
REMARK VINA RESULT:      -9.1      0.000      0.000
REMARK  6 active torsions:
REMARK  status: ('A' for Active; 'I' for Inactive)
REMARK    1  A    between atoms: C_2  and  N_3 
REMARK    2  A    between atoms: C_4  and  C_5 
REMARK    3  A    between atoms: C_5  and  O_6 
REMARK    4  A    between atoms: N_8  and  C_9 
REMARK    5  A    between atoms: C_12  and  C_13 
REMARK    6  A    between atoms: N_17  and  C_18 
ROOT
ATOM      1  C   UNL d   1     -28.602  22.198  22.133  0.00  0.00     0.103 A 
ATOM      2  C   UNL d   1     -27.906  23.104  22.915  0.00  0.00     0.048 A 
ATOM      3  C   UNL d   1     -26.530  23.242  22.741  0.00  0.00    -0.010 A 
ATOM      4  C   UNL d   1     -25.739  24.181  23.541  0.00  0.00    -0.027 A 
ATOM      5  C   UNL d   1     -24.418  24.277  23.328  0.00  0.00     0.110 A 
ATOM      6  N   UNL d   1     -23.771  23.527  22.384  0.00  0.00    -0.270 N 
ATOM      7  C   UNL d   1     -24.419  22.639  21.604  0.00  0.00     0.264 A 
ATOM      8  O   UNL d   1     -23.809  21.988  20.774  0.00  0.00    -0.267 OA
ATOM      9  C   UNL d   1     -25.865  22.464  21.764  0.00  0.00     0.046 A 
ATOM     10  C   UNL d   1     -26.588  21.560  20.984  0.00  0.00     0.062 A 
ATOM     11  C   UNL d   1     -27.937  21.433  21.170  0.00  0.00     0.146 A 
ATOM     12  F   UNL d   1     -28.636  20.558  20.414  0.00  0.00    -0.204 F 
ENDROOT
BRANCH   1  13
ATOM     13  N   UNL d   1     -29.981  22.050  22.304  0.00  0.00    -0.178 N 
ATOM     14  N   UNL d   1     -30.959  22.158  21.307  0.00  0.00    -0.147 NA
ATOM     15  C   UNL d   1     -32.115  21.958  21.852  0.00  0.00     0.154 A 
ATOM     16  N   UNL d   1     -31.937  21.718  23.193  0.00  0.00    -0.283 N 
ATOM     17  C   UNL d   1     -30.618  21.783  23.463  0.00  0.00     0.351 A 
ATOM     18  O   UNL d   1     -30.098  21.625  24.554  0.00  0.00    -0.244 OA
BRANCH  15  19
ATOM     19  C   UNL d   1     -33.440  21.984  21.134  0.00  0.00     0.244 C 
BRANCH  19  20
ATOM     20  O   UNL d   1     -33.812  20.653  20.772  0.00  0.00    -0.393 OA
ATOM     21  H   UNL d   1     -33.560  19.983  21.422  0.00  0.00     0.209 HD
ENDBRANCH  19  20
ENDBRANCH  15  19
BRANCH  16  22
ATOM     22  C   UNL d   1     -33.000  21.444  24.164  0.00  0.00     0.131 C 
ATOM     23  C   UNL d   1     -33.175  19.933  24.315  0.00  0.00     0.027 C 
ENDBRANCH  16  22
ENDBRANCH   1  13
BRANCH   4  24
ATOM     24  C   UNL d   1     -26.404  25.030  24.593  0.00  0.00     0.013 C 
ATOM     25  C   UNL d   1     -26.774  24.158  25.794  0.00  0.00     0.015 C 
ATOM     26  C   UNL d   1     -25.443  26.133  25.040  0.00  0.00     0.015 C 
ENDBRANCH   4  24
BRANCH   6  27
ATOM     27  C   UNL d   1     -22.394  23.686  22.223  0.00  0.00     0.165 A 
ATOM     28  C   UNL d   1     -21.896  24.439  21.162  0.00  0.00    -0.012 A 
ATOM     29  C   UNL d   1     -20.520  24.571  21.050  0.00  0.00     0.031 A 
ATOM     30  C   UNL d   1     -22.823  25.093  20.171  0.00  0.00     0.052 C 
ATOM     31  C   UNL d   1     -19.724  23.938  21.993  0.00  0.00     0.141 A 
ATOM     32  N   UNL d   1     -20.281  23.239  22.962  0.00  0.00    -0.161 NA
ATOM     33  N   UNL d   1     -21.554  23.117  23.075  0.00  0.00    -0.131 NA
ENDBRANCH   6  27
TORSDOF 6
ENDMDL
