MODEL 1
REMARK VINA RESULT:     -10.7      0.000      0.000
REMARK  6 active torsions:
REMARK  status: ('A' for Active; 'I' for Inactive)
REMARK    1  A    between atoms: C_2  and  O_3 
REMARK    2  A    between atoms: C_2  and  C_34 
REMARK    3  A    between atoms: O_3  and  C_4 
REMARK    4  A    between atoms: C_6  and  N_7 
REMARK    5  A    between atoms: C_21  and  C_22 
REMARK       I    between atoms: C_22  and  N_24 
REMARK    6  A    between atoms: N_24  and  C_25 
ROOT
ATOM      1  C   UNL d   1     -24.491  23.422  22.511  0.00  0.00     0.087 A 
ATOM      2  C   UNL d   1     -25.741  22.836  22.621  0.00  0.00     0.073 A 
ATOM      3  C   UNL d   1     -26.643  23.297  23.570  0.00  0.00     0.104 A 
ATOM      4  C   UNL d   1     -26.296  24.350  24.415  0.00  0.00     0.146 A 
ATOM      5  F   UNL d   1     -27.180  24.792  25.337  0.00  0.00    -0.204 F 
ATOM      6  C   UNL d   1     -25.055  24.937  24.318  0.00  0.00     0.064 A 
ATOM      7  C   UNL d   1     -24.141  24.483  23.360  0.00  0.00     0.068 A 
ENDROOT
BRANCH   7   8
ATOM      8  C   UNL d   1     -22.814  25.111  23.249  0.00  0.00     0.259 C 
ATOM      9  O   UNL d   1     -22.684  26.151  22.631  0.00  0.00    -0.267 OA
ATOM     10  N   UNL d   1     -21.744  24.534  23.830  0.00  0.00    -0.319 N 
ATOM     11  H   UNL d   1     -21.831  23.664  24.252  0.00  0.00     0.169 HD
BRANCH  10  12
ATOM     12  C   UNL d   1     -20.505  25.190  23.825  0.00  0.00     0.096 A 
ATOM     13  C   UNL d   1     -20.214  26.132  24.803  0.00  0.00     0.066 A 
ATOM     14  C   UNL d   1     -18.990  26.778  24.797  0.00  0.00     0.068 A 
ATOM     15 CL   UNL d   1     -21.384  26.500  26.031  0.00  0.00    -0.082 Cl
ATOM     16  C   UNL d   1     -18.057  26.486  23.816  0.00  0.00     0.121 A 
ATOM     17  C   UNL d   1     -18.345  25.546  22.840  0.00  0.00     0.087 A 
ATOM     18  F   UNL d   1     -16.863  27.118  23.812  0.00  0.00    -0.206 F 
ATOM     19  C   UNL d   1     -19.564  24.894  22.846  0.00  0.00     0.147 A 
ATOM     20  F   UNL d   1     -19.842  23.973  21.896  0.00  0.00    -0.204 F 
ENDBRANCH  10  12
ENDBRANCH   7   8
BRANCH   1  21
ATOM     21  O   UNL d   1     -23.608  22.972  21.584  0.00  0.00    -0.336 OA
BRANCH  21  22
ATOM     22  C   UNL d   1     -23.741  23.487  20.257  0.00  0.00     0.232 C 
ATOM     23  C   UNL d   1     -22.363  23.878  19.722  0.00  0.00     0.049 C 
BRANCH  22  24
ATOM     24  C   UNL d   1     -24.354  22.415  19.354  0.00  0.00     0.413 C 
ATOM     25  F   UNL d   1     -24.490  22.919  18.057  0.00  0.00    -0.168 F 
ATOM     26  F   UNL d   1     -23.521  21.291  19.333  0.00  0.00    -0.168 F 
ATOM     27  F   UNL d   1     -25.613  22.053  19.848  0.00  0.00    -0.168 F 
ENDBRANCH  22  24
ENDBRANCH  21  22
ENDBRANCH   1  21
BRANCH   3  28
ATOM     28  N   UNL d   1     -27.902  22.702  23.679  0.00  0.00    -0.178 N 
ATOM     29  C   UNL d   1     -28.347  21.954  24.715  0.00  0.00     0.351 A 
ATOM     30  N   UNL d   1     -29.598  21.583  24.430  0.00  0.00    -0.282 N 
ATOM     31  O   UNL d   1     -27.723  21.673  25.722  0.00  0.00    -0.244 OA
ATOM     32  C   UNL d   1     -29.934  22.098  23.185  0.00  0.00     0.155 A 
ATOM     33  C   UNL d   1     -30.536  20.772  25.220  0.00  0.00     0.137 C 
ATOM     34  N   UNL d   1     -28.936  22.764  22.731  0.00  0.00    -0.147 NA
ATOM     35  C   UNL d   1     -31.289  21.853  22.549  0.00  0.00     0.248 C 
ATOM     36  O   UNL d   1     -32.271  22.502  23.366  0.00  0.00    -0.384 OA
ATOM     37  C   UNL d   1     -32.718  21.789  24.498  0.00  0.00     0.169 C 
ATOM     38  C   UNL d   1     -31.709  21.675  25.618  0.00  0.00     0.046 C 
ENDBRANCH   3  28
TORSDOF 6
ENDMDL
