MODEL 1
REMARK VINA RESULT:     -12.6      0.000      0.000
REMARK  4 active torsions:
REMARK  status: ('A' for Active; 'I' for Inactive)
REMARK    1  A    between atoms: C_4  and  C_5 
REMARK    2  A    between atoms: C_5  and  O_7 
REMARK    3  A    between atoms: C_10  and  C_11 
REMARK    4  A    between atoms: C_16  and  C_17 
ROOT
ATOM      1  C   UNL d   1     -26.761  22.765  22.840  0.00  0.00     0.093 A 
ATOM      2  C   UNL d   1     -26.142  23.809  23.537  0.00  0.00     0.173 A 
ATOM      3  F   UNL d   1     -26.845  24.532  24.436  0.00  0.00    -0.202 F 
ATOM      4  C   UNL d   1     -24.811  24.098  23.305  0.00  0.00     0.170 A 
ATOM      5  F   UNL d   1     -24.213  25.106  23.977  0.00  0.00    -0.202 F 
ATOM      6  C   UNL d   1     -24.085  23.351  22.376  0.00  0.00     0.058 A 
ATOM      7  C   UNL d   1     -24.704  22.313  21.676  0.00  0.00     0.170 A 
ATOM      8  F   UNL d   1     -24.001  21.594  20.773  0.00  0.00    -0.202 F 
ATOM      9  C   UNL d   1     -26.032  22.017  21.910  0.00  0.00     0.173 A 
ATOM     10  F   UNL d   1     -26.630  21.009  21.237  0.00  0.00    -0.202 F 
ENDROOT
BRANCH   1  11
ATOM     11  C   UNL d   1     -28.183  22.453  23.088  0.00  0.00     0.145 A 
ATOM     12  N   UNL d   1     -28.665  21.960  24.207  0.00  0.00    -0.227 NA
ATOM     13  C   UNL d   1     -29.994  21.798  24.096  0.00  0.00     0.102 A 
ATOM     14  C   UNL d   1     -30.990  21.315  24.976  0.00  0.00     0.069 A 
ATOM     15  C   UNL d   1     -30.365  22.224  22.808  0.00  0.00     0.064 A 
ATOM     16  C   UNL d   1     -32.316  21.270  24.552  0.00  0.00     0.027 A 
ATOM     17  C   UNL d   1     -32.657  21.695  23.281  0.00  0.00    -0.059 A 
ATOM     18  C   UNL d   1     -34.097  21.639  22.838  0.00  0.00     0.048 C 
ATOM     19  C   UNL d   1     -31.692  22.167  22.413  0.00  0.00     0.038 A 
ATOM     20  N   UNL d   1     -29.199  22.639  22.192  0.00  0.00    -0.338 N 
ATOM     21  H   UNL d   1     -29.117  22.994  21.292  0.00  0.00     0.167 HD
BRANCH  14  22
ATOM     22  C   UNL d   1     -30.627  20.863  26.329  0.00  0.00     0.178 C 
ATOM     23  O   UNL d   1     -30.980  19.768  26.719  0.00  0.00    -0.646 OA
BRANCH  22  24
ATOM     24  O   UNL d   1     -29.904  21.665  27.136  0.00  0.00    -0.773 OA
ATOM     25  H   UNL d   1     -30.119  22.608  27.125  0.00  0.00     0.167 HD
ENDBRANCH  22  24
ENDBRANCH  14  22
ENDBRANCH   1  11
BRANCH   6  26
ATOM     26  C   UNL d   1     -22.658  23.664  22.127  0.00  0.00    -0.020 A 
ATOM     27  C   UNL d   1     -22.276  24.300  20.947  0.00  0.00     0.012 A 
ATOM     28  C   UNL d   1     -20.946  24.589  20.721  0.00  0.00     0.001 A 
ATOM     29  C   UNL d   1     -19.992  24.249  21.664  0.00  0.00     0.000 A 
ATOM     30  C   UNL d   1     -20.365  23.620  22.837  0.00  0.00     0.001 A 
ATOM     31  C   UNL d   1     -21.692  23.325  23.074  0.00  0.00     0.012 A 
ENDBRANCH   6  26
TORSDOF 4
ENDMDL
