MODEL 1
REMARK VINA RESULT:     -11.9      0.000      0.000
REMARK  3 active torsions:
REMARK  status: ('A' for Active; 'I' for Inactive)
REMARK    1  A    between atoms: C_4  and  C_5 
REMARK       I    between atoms: C_5  and  N_6 
REMARK    2  A    between atoms: C_10  and  C_11 
REMARK    3  A    between atoms: C_14  and  C_15 
ROOT
ATOM      1  C   UNL d   1     -33.893  21.645  22.279  0.00  0.00     0.048 C 
ATOM      2  C   UNL d   1     -32.498  21.706  22.848  0.00  0.00    -0.059 A 
ATOM      3  C   UNL d   1     -32.260  21.238  24.127  0.00  0.00     0.026 A 
ATOM      4  C   UNL d   1     -30.978  21.292  24.668  0.00  0.00     0.063 A 
ATOM      5  C   UNL d   1     -29.920  21.818  23.896  0.00  0.00     0.101 A 
ATOM      6  N   UNL d   1     -28.608  21.995  24.127  0.00  0.00    -0.227 NA
ATOM      7  C   UNL d   1     -28.039  22.533  23.074  0.00  0.00     0.139 A 
ATOM      8  N   UNL d   1     -28.974  22.730  22.095  0.00  0.00    -0.338 N 
ATOM      9  H   UNL d   1     -28.818  23.112  21.217  0.00  0.00     0.167 HD
ATOM     10  C   UNL d   1     -30.182  22.282  22.595  0.00  0.00     0.064 A 
ATOM     11  C   UNL d   1     -31.469  22.221  22.083  0.00  0.00     0.038 A 
ENDROOT
BRANCH   7  12
ATOM     12  C   UNL d   1     -26.604  22.873  22.961  0.00  0.00     0.010 A 
ATOM     13  C   UNL d   1     -26.077  23.933  23.702  0.00  0.00     0.016 A 
ATOM     14  C   UNL d   1     -24.741  24.249  23.597  0.00  0.00     0.013 A 
ATOM     15  C   UNL d   1     -23.915  23.510  22.750  0.00  0.00    -0.026 A 
ATOM     16  C   UNL d   1     -24.440  22.452  22.010  0.00  0.00     0.013 A 
ATOM     17  C   UNL d   1     -25.775  22.130  22.117  0.00  0.00     0.016 A 
BRANCH  15  18
ATOM     18  C   UNL d   1     -22.476  23.851  22.638  0.00  0.00    -0.026 A 
ATOM     19  C   UNL d   1     -21.908  24.082  21.386  0.00  0.00     0.012 A 
ATOM     20  C   UNL d   1     -20.568  24.399  21.287  0.00  0.00     0.001 A 
ATOM     21  C   UNL d   1     -19.790  24.490  22.427  0.00  0.00     0.000 A 
ATOM     22  C   UNL d   1     -20.349  24.262  23.672  0.00  0.00     0.001 A 
ATOM     23  C   UNL d   1     -21.688  23.949  23.784  0.00  0.00     0.012 A 
ENDBRANCH  15  18
ENDBRANCH   7  12
BRANCH   4  24
ATOM     24  C   UNL d   1     -30.727  20.799  26.034  0.00  0.00     0.251 C 
ATOM     25  N   UNL d   1     -30.769  19.476  26.291  0.00  0.00    -0.366 N 
ATOM     26  H   UNL d   1     -30.605  19.151  27.190  0.00  0.00     0.159 HD
ATOM     27  H   UNL d   1     -30.969  18.849  25.578  0.00  0.00     0.159 HD
ATOM     28  O   UNL d   1     -30.483  21.585  26.930  0.00  0.00    -0.268 OA
ENDBRANCH   4  24
TORSDOF 3
ENDMDL
