MODEL 1
REMARK VINA RESULT:     -11.3      0.000      0.000
REMARK  4 active torsions:
REMARK  status: ('A' for Active; 'I' for Inactive)
REMARK    1  A    between atoms: C_4  and  C_5 
REMARK    2  A    between atoms: C_5  and  O_7 
REMARK    3  A    between atoms: C_10  and  C_11 
REMARK    4  A    between atoms: C_14  and  C_15 
ROOT
ATOM      1  C   UNL d   1     -34.044  21.703  22.233  0.00  0.00     0.048 C 
ATOM      2  C   UNL d   1     -32.656  21.763  22.817  0.00  0.00    -0.059 A 
ATOM      3  C   UNL d   1     -32.445  21.360  24.123  0.00  0.00     0.027 A 
ATOM      4  C   UNL d   1     -31.169  21.409  24.678  0.00  0.00     0.069 A 
ATOM      5  C   UNL d   1     -30.088  21.875  23.895  0.00  0.00     0.102 A 
ATOM      6  N   UNL d   1     -28.777  22.037  24.136  0.00  0.00    -0.226 NA
ATOM      7  C   UNL d   1     -28.183  22.509  23.064  0.00  0.00     0.158 A 
ATOM      8  N   UNL d   1     -29.102  22.678  22.066  0.00  0.00    -0.337 N 
ATOM      9  H   UNL d   1     -28.926  23.010  21.171  0.00  0.00     0.167 HD
ATOM     10  C   UNL d   1     -30.324  22.280  22.569  0.00  0.00     0.064 A 
ATOM     11  C   UNL d   1     -31.607  22.220  22.042  0.00  0.00     0.038 A 
ENDROOT
BRANCH   7  12
ATOM     12  C   UNL d   1     -26.741  22.814  22.955  0.00  0.00     0.102 A 
ATOM     13  N   UNL d   1     -26.226  23.816  23.659  0.00  0.00    -0.256 NA
ATOM     14  C   UNL d   1     -24.949  24.121  23.598  0.00  0.00     0.129 A 
ATOM     15  C   UNL d   1     -24.083  23.402  22.772  0.00  0.00    -0.008 A 
ATOM     16  C   UNL d   1     -24.590  22.343  22.012  0.00  0.00     0.016 A 
ATOM     17  C   UNL d   1     -25.937  22.050  22.108  0.00  0.00     0.036 A 
BRANCH  15  18
ATOM     18  C   UNL d   1     -22.644  23.754  22.704  0.00  0.00    -0.025 A 
ATOM     19  C   UNL d   1     -21.888  23.836  23.872  0.00  0.00     0.012 A 
ATOM     20  C   UNL d   1     -20.549  24.165  23.802  0.00  0.00     0.001 A 
ATOM     21  C   UNL d   1     -19.958  24.411  22.576  0.00  0.00     0.000 A 
ATOM     22  C   UNL d   1     -20.704  24.330  21.414  0.00  0.00     0.001 A 
ATOM     23  C   UNL d   1     -22.042  23.997  21.470  0.00  0.00     0.012 A 
ENDBRANCH  15  18
ENDBRANCH   7  12
BRANCH   4  24
ATOM     24  C   UNL d   1     -30.946  20.979  26.068  0.00  0.00     0.178 C 
ATOM     25  O   UNL d   1     -31.444  19.947  26.473  0.00  0.00    -0.646 OA
BRANCH  24  26
ATOM     26  O   UNL d   1     -30.188  21.730  26.892  0.00  0.00    -0.773 OA
ATOM     27  H   UNL d   1     -29.379  21.326  27.234  0.00  0.00     0.167 HD
ENDBRANCH  24  26
ENDBRANCH   4  24
TORSDOF 4
ENDMDL
