MODEL 1
REMARK VINA RESULT:     -10.5      0.000      0.000
REMARK  7 active torsions:
REMARK  status: ('A' for Active; 'I' for Inactive)
REMARK    1  A    between atoms: C_2  and  O_3 
REMARK    2  A    between atoms: C_2  and  C_32 
REMARK    3  A    between atoms: O_3  and  C_4 
REMARK    4  A    between atoms: C_6  and  N_7 
REMARK    5  A    between atoms: C_9  and  C_10 
REMARK    6  A    between atoms: C_21  and  C_22 
REMARK       I    between atoms: C_22  and  N_24 
REMARK    7  A    between atoms: N_24  and  C_25 
ROOT
ATOM      1  C   UNL d   1     -24.801  23.280  22.640  0.00  0.00     0.087 A 
ATOM      2  C   UNL d   1     -26.076  22.773  22.816  0.00  0.00     0.073 A 
ATOM      3  C   UNL d   1     -26.911  23.312  23.785  0.00  0.00     0.104 A 
ATOM      4  C   UNL d   1     -26.471  24.367  24.583  0.00  0.00     0.146 A 
ATOM      5  F   UNL d   1     -27.291  24.891  25.520  0.00  0.00    -0.204 F 
ATOM      6  C   UNL d   1     -25.202  24.875  24.421  0.00  0.00     0.064 A 
ATOM      7  C   UNL d   1     -24.354  24.339  23.445  0.00  0.00     0.068 A 
ENDROOT
BRANCH   3   8
ATOM      8  N   UNL d   1     -28.197  22.797  23.959  0.00  0.00    -0.178 N 
ATOM      9  C   UNL d   1     -28.598  21.956  24.936  0.00  0.00     0.351 A 
ATOM     10  N   UNL d   1     -29.908  21.706  24.741  0.00  0.00    -0.288 N 
ATOM     11  O   UNL d   1     -27.904  21.509  25.831  0.00  0.00    -0.244 OA
ATOM     12  C   UNL d   1     -30.321  22.403  23.631  0.00  0.00     0.135 A 
ATOM     13  C   UNL d   1     -30.749  20.840  25.572  0.00  0.00     0.162 C 
ATOM     14  N   UNL d   1     -29.313  23.059  23.152  0.00  0.00    -0.149 NA
BRANCH  12  15
ATOM     15  C   UNL d   1     -31.717  22.402  23.064  0.00  0.00     0.057 C 
ATOM     16  C   UNL d   1     -31.770  22.089  21.560  0.00  0.00     0.012 C 
ATOM     17  C   UNL d   1     -33.020  21.246  21.859  0.00  0.00     0.002 C 
ATOM     18  C   UNL d   1     -32.472  21.081  23.288  0.00  0.00     0.012 C 
ENDBRANCH  12  15
ENDBRANCH   3   8
BRANCH   1  19
ATOM     19  O   UNL d   1     -23.984  22.755  21.692  0.00  0.00    -0.336 OA
BRANCH  19  20
ATOM     20  C   UNL d   1     -24.016  23.363  20.399  0.00  0.00     0.232 C 
ATOM     21  C   UNL d   1     -22.600  23.781  19.996  0.00  0.00     0.049 C 
BRANCH  20  22
ATOM     22  C   UNL d   1     -24.562  22.362  19.379  0.00  0.00     0.413 C 
ATOM     23  F   UNL d   1     -25.838  21.945  19.772  0.00  0.00    -0.168 F 
ATOM     24  F   UNL d   1     -24.638  22.972  18.122  0.00  0.00    -0.168 F 
ATOM     25  F   UNL d   1     -23.710  21.255  19.309  0.00  0.00    -0.168 F 
ENDBRANCH  20  22
ENDBRANCH  19  20
ENDBRANCH   1  19
BRANCH   7  26
ATOM     26  C   UNL d   1     -22.998  24.884  23.264  0.00  0.00     0.259 C 
ATOM     27  O   UNL d   1     -22.846  25.983  22.764  0.00  0.00    -0.267 OA
ATOM     28  N   UNL d   1     -21.925  24.166  23.651  0.00  0.00    -0.320 N 
ATOM     29  H   UNL d   1     -22.040  23.257  23.972  0.00  0.00     0.169 HD
BRANCH  28  30
ATOM     30  C   UNL d   1     -20.646  24.731  23.591  0.00  0.00     0.073 A 
ATOM     31  C   UNL d   1     -20.165  25.480  24.659  0.00  0.00     0.143 A 
ATOM     32  C   UNL d   1     -18.898  26.033  24.599  0.00  0.00     0.044 A 
ATOM     33  F   UNL d   1     -20.931  25.664  25.757  0.00  0.00    -0.204 F 
ATOM     34  C   UNL d   1     -18.116  25.850  23.472  0.00  0.00     0.003 A 
ATOM     35  C   UNL d   1     -18.595  25.109  22.407  0.00  0.00     0.002 A 
ATOM     36  C   UNL d   1     -19.857  24.550  22.463  0.00  0.00     0.033 A 
ENDBRANCH  28  30
ENDBRANCH   7  26
TORSDOF 7
ENDMDL
