MODEL 1
REMARK VINA RESULT:     -11.1      0.000      0.000
REMARK  6 active torsions:
REMARK  status: ('A' for Active; 'I' for Inactive)
REMARK    1  A    between atoms: C_2  and  O_3 
REMARK    2  A    between atoms: C_2  and  C_35 
REMARK    3  A    between atoms: O_3  and  C_4 
REMARK    4  A    between atoms: C_6  and  N_7 
REMARK    5  A    between atoms: C_20  and  C_21 
REMARK       I    between atoms: C_21  and  N_23 
REMARK    6  A    between atoms: N_23  and  C_24 
ROOT
ATOM      1  C   UNL d   1     -24.719  23.325  22.638  0.00  0.00     0.087 A 
ATOM      2  C   UNL d   1     -25.980  22.785  22.823  0.00  0.00     0.073 A 
ATOM      3  C   UNL d   1     -26.827  23.313  23.788  0.00  0.00     0.104 A 
ATOM      4  C   UNL d   1     -26.408  24.381  24.580  0.00  0.00     0.146 A 
ATOM      5  F   UNL d   1     -27.236  24.885  25.522  0.00  0.00    -0.204 F 
ATOM      6  C   UNL d   1     -25.155  24.922  24.409  0.00  0.00     0.064 A 
ATOM      7  C   UNL d   1     -24.296  24.399  23.435  0.00  0.00     0.068 A 
ENDROOT
BRANCH   7   8
ATOM      8  C   UNL d   1     -22.954  24.975  23.247  0.00  0.00     0.259 C 
ATOM      9  O   UNL d   1     -22.823  26.037  22.669  0.00  0.00    -0.267 OA
ATOM     10  N   UNL d   1     -21.870  24.325  23.715  0.00  0.00    -0.323 N 
ATOM     11  H   UNL d   1     -21.979  23.518  24.242  0.00  0.00     0.169 HD
BRANCH  10  12
ATOM     12  C   UNL d   1     -20.587  24.815  23.441  0.00  0.00     0.037 A 
ATOM     13  C   UNL d   1     -20.010  25.756  24.283  0.00  0.00     0.068 A 
ATOM     14  C   UNL d   1     -18.740  26.235  24.012  0.00  0.00     0.098 A 
ATOM     15  C   UNL d   1     -18.050  25.779  22.890  0.00  0.00     0.068 A 
ATOM     16  O   UNL d   1     -18.158  27.152  24.830  0.00  0.00    -0.340 OA
ATOM     17  C   UNL d   1     -18.630  24.843  22.050  0.00  0.00     0.035 A 
ATOM     18  N   UNL d   1     -16.765  26.279  22.627  0.00  0.00    -0.323 N 
ATOM     19  C   UNL d   1     -19.896  24.361  22.325  0.00  0.00     0.032 A 
ATOM     20  C   UNL d   1     -16.104  26.933  23.606  0.00  0.00     0.246 C 
ATOM     21  H   UNL d   1     -16.359  26.157  21.755  0.00  0.00     0.169 HD
ATOM     22  C   UNL d   1     -16.736  27.081  24.966  0.00  0.00     0.278 C 
ATOM     23  O   UNL d   1     -15.004  27.400  23.392  0.00  0.00    -0.271 OA
ENDBRANCH  10  12
ENDBRANCH   7   8
BRANCH   1  24
ATOM     24  O   UNL d   1     -23.892  22.813  21.691  0.00  0.00    -0.336 OA
BRANCH  24  25
ATOM     25  C   UNL d   1     -23.981  23.374  20.380  0.00  0.00     0.232 C 
ATOM     26  C   UNL d   1     -22.590  23.809  19.916  0.00  0.00     0.049 C 
BRANCH  25  27
ATOM     27  C   UNL d   1     -24.536  22.326  19.414  0.00  0.00     0.413 C 
ATOM     28  F   UNL d   1     -23.701  21.204  19.413  0.00  0.00    -0.168 F 
ATOM     29  F   UNL d   1     -25.821  21.950  19.822  0.00  0.00    -0.168 F 
ATOM     30  F   UNL d   1     -24.596  22.864  18.125  0.00  0.00    -0.168 F 
ENDBRANCH  25  27
ENDBRANCH  24  25
ENDBRANCH   1  24
BRANCH   3  31
ATOM     31  N   UNL d   1     -28.100  22.768  23.968  0.00  0.00    -0.178 N 
ATOM     32  C   UNL d   1     -28.503  22.001  25.004  0.00  0.00     0.351 A 
ATOM     33  N   UNL d   1     -29.801  21.714  24.810  0.00  0.00    -0.284 N 
ATOM     34  O   UNL d   1     -27.817  21.637  25.942  0.00  0.00    -0.244 OA
ATOM     35  C   UNL d   1     -30.195  22.278  23.614  0.00  0.00     0.131 A 
ATOM     36  C   UNL d   1     -30.690  20.955  25.697  0.00  0.00     0.135 C 
ATOM     37  N   UNL d   1     -29.197  22.915  23.105  0.00  0.00    -0.149 NA
ATOM     38  C   UNL d   1     -31.585  22.135  23.037  0.00  0.00     0.081 C 
ATOM     39  C   UNL d   1     -32.525  21.695  24.167  0.00  0.00     0.009 C 
ATOM     40  C   UNL d   1     -31.908  20.492  24.889  0.00  0.00     0.021 C 
ENDBRANCH   3  31
TORSDOF 6
ENDMDL
