MODEL 1
REMARK VINA RESULT:     -10.1      0.000      0.000
REMARK  8 active torsions:
REMARK  status: ('A' for Active; 'I' for Inactive)
REMARK    1  A    between atoms: C_2  and  N_3 
REMARK    2  A    between atoms: C_4  and  C_5 
REMARK       I    between atoms: C_5  and  N_6 
REMARK    3  A    between atoms: N_9  and  C_10 
REMARK    4  A    between atoms: C_12  and  O_13 
REMARK    5  A    between atoms: O_13  and  C_14 
REMARK    6  A    between atoms: C_14  and  C_16 
REMARK    7  A    between atoms: C_20  and  C_21 
REMARK       I    between atoms: C_21  and  N_23 
REMARK    8  A    between atoms: N_23  and  C_24 
ROOT
ATOM      1  C   UNL d   1     -26.865  23.196  23.806  0.00  0.00     0.105 A 
ATOM      2  C   UNL d   1     -25.994  22.706  22.842  0.00  0.00     0.073 A 
ATOM      3  C   UNL d   1     -24.748  23.286  22.675  0.00  0.00     0.087 A 
ATOM      4  C   UNL d   1     -24.364  24.362  23.491  0.00  0.00     0.068 A 
ATOM      5  C   UNL d   1     -25.246  24.845  24.462  0.00  0.00     0.064 A 
ATOM      6  C   UNL d   1     -26.486  24.264  24.617  0.00  0.00     0.146 A 
ATOM      7  F   UNL d   1     -27.337  24.732  25.556  0.00  0.00    -0.204 F 
ENDROOT
BRANCH   1   8
ATOM      8  N   UNL d   1     -28.123  22.611  23.968  0.00  0.00    -0.177 N 
ATOM      9  N   UNL d   1     -28.613  22.013  25.138  0.00  0.00    -0.139 NA
ATOM     10  C   UNL d   1     -29.821  21.582  24.896  0.00  0.00     0.222 A 
ATOM     11  N   UNL d   1     -30.139  21.885  23.582  0.00  0.00    -0.277 N 
ATOM     12  C   UNL d   1     -29.085  22.515  23.027  0.00  0.00     0.351 A 
ATOM     13  O   UNL d   1     -29.014  22.926  21.884  0.00  0.00    -0.244 OA
BRANCH  10  14
ATOM     14  C   UNL d   1     -30.701  20.896  25.859  0.00  0.00     0.287 C 
ATOM     15  N   UNL d   1     -30.519  19.586  26.123  0.00  0.00    -0.363 N 
ATOM     16  H   UNL d   1     -29.809  19.096  25.680  0.00  0.00     0.159 HD
ATOM     17  H   UNL d   1     -31.097  19.135  26.757  0.00  0.00     0.159 HD
ATOM     18  O   UNL d   1     -31.590  21.510  26.416  0.00  0.00    -0.264 OA
ENDBRANCH  10  14
BRANCH  11  19
ATOM     19  C   UNL d   1     -31.404  21.574  22.911  0.00  0.00     0.131 C 
ATOM     20  C   UNL d   1     -32.437  22.653  23.243  0.00  0.00     0.027 C 
ENDBRANCH  11  19
ENDBRANCH   1   8
BRANCH   3  21
ATOM     21  O   UNL d   1     -23.898  22.812  21.730  0.00  0.00    -0.336 OA
BRANCH  21  22
ATOM     22  C   UNL d   1     -24.001  23.379  20.422  0.00  0.00     0.232 C 
ATOM     23  C   UNL d   1     -22.618  23.830  19.952  0.00  0.00     0.049 C 
BRANCH  22  24
ATOM     24  C   UNL d   1     -24.552  22.329  19.454  0.00  0.00     0.413 C 
ATOM     25  F   UNL d   1     -23.726  21.201  19.471  0.00  0.00    -0.168 F 
ATOM     26  F   UNL d   1     -25.846  21.967  19.847  0.00  0.00    -0.168 F 
ATOM     27  F   UNL d   1     -24.589  22.861  18.161  0.00  0.00    -0.168 F 
ENDBRANCH  22  24
ENDBRANCH  21  22
ENDBRANCH   3  21
BRANCH   4  28
ATOM     28  C   UNL d   1     -23.039  24.981  23.323  0.00  0.00     0.259 C 
ATOM     29  O   UNL d   1     -22.927  26.024  22.706  0.00  0.00    -0.267 OA
ATOM     30  N   UNL d   1     -21.949  24.392  23.852  0.00  0.00    -0.318 N 
ATOM     31  H   UNL d   1     -22.023  23.520  24.271  0.00  0.00     0.169 HD
BRANCH  30  32
ATOM     32  C   UNL d   1     -20.707  25.039  23.799  0.00  0.00     0.113 A 
ATOM     33  C   UNL d   1     -20.381  26.003  24.746  0.00  0.00     0.146 A 
ATOM     34  C   UNL d   1     -19.154  26.639  24.690  0.00  0.00     0.045 A 
ATOM     35  F   UNL d   1     -21.262  26.317  25.721  0.00  0.00    -0.204 F 
ATOM     36  C   UNL d   1     -18.252  26.317  23.693  0.00  0.00     0.006 A 
ATOM     37  C   UNL d   1     -18.572  25.359  22.749  0.00  0.00     0.045 A 
ATOM     38  C   UNL d   1     -19.794  24.714  22.802  0.00  0.00     0.146 A 
ATOM     39  F   UNL d   1     -20.103  23.774  21.883  0.00  0.00    -0.204 F 
ENDBRANCH  30  32
ENDBRANCH   4  28
TORSDOF 8
ENDMDL
