MODEL 1
REMARK VINA RESULT:     -11.5      0.000      0.000
REMARK  8 active torsions:
REMARK  status: ('A' for Active; 'I' for Inactive)
REMARK    1  A    between atoms: C_3  and  N_4 
REMARK    2  A    between atoms: N_4  and  C_5 
REMARK    3  A    between atoms: C_18  and  O_19 
REMARK    4  A    between atoms: O_19  and  C_20 
REMARK       I    between atoms: N_23  and  C_24 
REMARK    5  A    between atoms: C_24  and  C_26 
REMARK    6  A    between atoms: C_26  and  C_27 
REMARK    7  A    between atoms: C_27  and  C_28 
REMARK    8  A    between atoms: C_27  and  C_32 
ROOT
ATOM      1  C   UNL d   1     -24.611  25.898  24.205  0.00  0.00     0.053 C 
ATOM      2  C   UNL d   1     -24.511  24.699  23.296  0.00  0.00    -0.002 A 
ATOM      3  C   UNL d   1     -23.544  24.662  22.301  0.00  0.00     0.044 A 
ATOM      4  C   UNL d   1     -23.457  23.559  21.460  0.00  0.00     0.054 A 
ATOM      5  C   UNL d   1     -24.331  22.498  21.619  0.00  0.00     0.038 A 
ATOM      6 CL   UNL d   1     -24.221  21.122  20.567  0.00  0.00    -0.084 Cl
ATOM      7  C   UNL d   1     -25.290  22.533  22.614  0.00  0.00     0.061 A 
ATOM      8  C   UNL d   1     -25.381  23.632  23.456  0.00  0.00     0.079 A 
ENDROOT
BRANCH   8   9
ATOM      9  O   UNL d   1     -26.324  23.665  24.433  0.00  0.00    -0.345 OA
BRANCH   9  10
ATOM     10  C   UNL d   1     -27.367  22.691  24.360  0.00  0.00     0.132 C 
ATOM     11  C   UNL d   1     -28.448  23.173  23.390  0.00  0.00     0.052 C 
ATOM     12  C   UNL d   1     -29.548  22.106  23.286  0.00  0.00     0.128 C 
ATOM     13  N   UNL d   1     -30.041  21.810  24.639  0.00  0.00    -0.352 N 
ATOM     14  C   UNL d   1     -29.073  21.423  25.674  0.00  0.00     0.128 C 
ATOM     15  C   UNL d   1     -31.356  21.885  24.922  0.00  0.00     0.220 C 
ATOM     16  C   UNL d   1     -27.978  22.493  25.749  0.00  0.00     0.052 C 
ATOM     17  O   UNL d   1     -31.750  21.633  26.041  0.00  0.00    -0.273 OA
BRANCH  15  18
ATOM     18  C   UNL d   1     -32.337  22.283  23.849  0.00  0.00     0.125 C 
BRANCH  18  19
ATOM     19  C   UNL d   1     -32.484  21.139  22.844  0.00  0.00     0.209 C 
BRANCH  19  20
ATOM     20  C   UNL d   1     -33.012  21.690  21.518  0.00  0.00     0.400 C 
ATOM     21  F   UNL d   1     -33.537  20.643  20.754  0.00  0.00    -0.170 F 
ATOM     22  F   UNL d   1     -34.014  22.633  21.770  0.00  0.00    -0.170 F 
ATOM     23  F   UNL d   1     -31.964  22.299  20.817  0.00  0.00    -0.170 F 
ENDBRANCH  19  20
BRANCH  19  24
ATOM     24  C   UNL d   1     -33.466  20.102  23.392  0.00  0.00     0.400 C 
ATOM     25  F   UNL d   1     -33.910  19.283  22.347  0.00  0.00    -0.170 F 
ATOM     26  F   UNL d   1     -32.826  19.317  24.359  0.00  0.00    -0.170 F 
ATOM     27  F   UNL d   1     -34.560  20.754  23.971  0.00  0.00    -0.170 F 
ENDBRANCH  19  24
ENDBRANCH  18  19
ENDBRANCH  15  18
ENDBRANCH   9  10
ENDBRANCH   8   9
BRANCH   3  28
ATOM     28  N   UNL d   1     -22.663  25.734  22.140  0.00  0.00    -0.335 N 
ATOM     29  H   UNL d   1     -22.824  26.395  21.448  0.00  0.00     0.168 HD
BRANCH  28  30
ATOM     30  C   UNL d   1     -21.558  25.855  22.970  0.00  0.00     0.171 A 
ATOM     31  S   UNL d   1     -20.095  24.992  22.784  0.00  0.00    -0.055 SA
ATOM     32  C   UNL d   1     -19.428  25.795  24.198  0.00  0.00     0.011 A 
ATOM     33  C   UNL d   1     -20.354  26.633  24.695  0.00  0.00     0.050 A 
ATOM     34  C   UNL d   1     -18.047  25.584  24.775  0.00  0.00     0.048 C 
ATOM     35  N   UNL d   1     -21.487  26.632  24.001  0.00  0.00    -0.228 NA
ATOM     36  C   UNL d   1     -20.111  27.488  25.930  0.00  0.00     0.060 C 
ATOM     37  C   UNL d   1     -18.915  26.918  26.696  0.00  0.00     0.006 C 
ATOM     38  C   UNL d   1     -17.736  26.737  25.735  0.00  0.00     0.006 C 
ENDBRANCH  28  30
ENDBRANCH   3  28
TORSDOF 8
ENDMDL
