MODEL 1
REMARK VINA RESULT:     -11.3      0.000      0.000
REMARK  6 active torsions:
REMARK  status: ('A' for Active; 'I' for Inactive)
REMARK    1  A    between atoms: C_6  and  N_7 
REMARK       I    between atoms: N_7  and  C_8 
REMARK    2  A    between atoms: C_8  and  C_10 
REMARK    3  A    between atoms: C_14  and  N_15 
REMARK    4  A    between atoms: C_26  and  O_27 
REMARK    5  A    between atoms: O_27  and  C_28 
REMARK    6  A    between atoms: C_28  and  C_30 
ROOT
ATOM      1  C   UNL d   1     -24.193  24.577  23.602  0.00  0.00     0.068 A 
ATOM      2  C   UNL d   1     -25.088  25.099  24.543  0.00  0.00     0.064 A 
ATOM      3  C   UNL d   1     -26.336  24.538  24.689  0.00  0.00     0.146 A 
ATOM      4  F   UNL d   1     -27.202  25.047  25.594  0.00  0.00    -0.204 F 
ATOM      5  C   UNL d   1     -26.707  23.441  23.912  0.00  0.00     0.104 A 
ATOM      6  C   UNL d   1     -25.826  22.917  22.976  0.00  0.00     0.073 A 
ATOM      7  C   UNL d   1     -24.571  23.478  22.816  0.00  0.00     0.087 A 
ENDROOT
BRANCH   1   8
ATOM      8  C   UNL d   1     -22.860  25.180  23.437  0.00  0.00     0.259 C 
ATOM      9  N   UNL d   1     -21.788  24.619  24.031  0.00  0.00    -0.321 N 
ATOM     10  H   UNL d   1     -21.880  23.774  24.499  0.00  0.00     0.169 HD
ATOM     11  O   UNL d   1     -22.725  26.184  22.764  0.00  0.00    -0.267 OA
BRANCH   9  12
ATOM     12  C   UNL d   1     -20.544  25.255  23.975  0.00  0.00     0.065 A 
ATOM     13  C   UNL d   1     -20.215  26.245  24.897  0.00  0.00    -0.031 A 
ATOM     14  C   UNL d   1     -18.970  26.846  24.802  0.00  0.00     0.035 A 
ATOM     15  C   UNL d   1     -21.187  26.653  25.973  0.00  0.00     0.050 C 
ATOM     16  C   UNL d   1     -18.103  26.447  23.802  0.00  0.00     0.031 A 
ATOM     17  C   UNL d   1     -16.748  27.097  23.690  0.00  0.00     0.070 C 
ATOM     18  N   UNL d   1     -18.445  25.506  22.944  0.00  0.00    -0.256 NA
ATOM     19  C   UNL d   1     -19.616  24.905  23.003  0.00  0.00     0.058 A 
ATOM     20  C   UNL d   1     -19.955  23.831  22.001  0.00  0.00     0.073 C 
ENDBRANCH   9  12
ENDBRANCH   1   8
BRANCH   7  21
ATOM     21  O   UNL d   1     -23.708  22.966  21.903  0.00  0.00    -0.336 OA
BRANCH  21  22
ATOM     22  C   UNL d   1     -23.980  23.244  20.527  0.00  0.00     0.232 C 
ATOM     23  C   UNL d   1     -22.690  23.678  19.829  0.00  0.00     0.049 C 
BRANCH  22  24
ATOM     24  C   UNL d   1     -24.526  21.985  19.852  0.00  0.00     0.413 C 
ATOM     25  F   UNL d   1     -23.947  21.847  18.586  0.00  0.00    -0.168 F 
ATOM     26  F   UNL d   1     -24.216  20.865  20.631  0.00  0.00    -0.168 F 
ATOM     27  F   UNL d   1     -25.915  22.091  19.719  0.00  0.00    -0.168 F 
ENDBRANCH  22  24
ENDBRANCH  21  22
ENDBRANCH   7  21
BRANCH   5  28
ATOM     28  N   UNL d   1     -27.973  22.872  24.070  0.00  0.00    -0.178 N 
ATOM     29  C   UNL d   1     -28.387  22.117  25.111  0.00  0.00     0.351 A 
ATOM     30  N   UNL d   1     -29.672  21.797  24.888  0.00  0.00    -0.284 N 
ATOM     31  O   UNL d   1     -27.717  21.786  26.072  0.00  0.00    -0.244 OA
ATOM     32  C   UNL d   1     -30.048  22.329  23.671  0.00  0.00     0.131 A 
ATOM     33  C   UNL d   1     -30.568  21.035  25.766  0.00  0.00     0.135 C 
ATOM     34  N   UNL d   1     -29.050  22.978  23.175  0.00  0.00    -0.149 NA
ATOM     35  C   UNL d   1     -31.418  22.144  23.062  0.00  0.00     0.081 C 
ATOM     36  C   UNL d   1     -32.378  21.706  24.176  0.00  0.00     0.009 C 
ATOM     37  C   UNL d   1     -31.755  20.532  24.937  0.00  0.00     0.021 C 
ENDBRANCH   5  28
TORSDOF 6
ENDMDL
