MODEL 1
REMARK VINA RESULT:     -10.7      0.000      0.000
REMARK  7 active torsions:
REMARK  status: ('A' for Active; 'I' for Inactive)
REMARK    1  A    between atoms: C_2  and  O_3 
REMARK    2  A    between atoms: C_2  and  C_33 
REMARK    3  A    between atoms: O_3  and  C_4 
REMARK    4  A    between atoms: C_6  and  N_7 
REMARK    5  A    between atoms: C_9  and  C_10 
REMARK    6  A    between atoms: C_21  and  C_22 
REMARK       I    between atoms: C_22  and  N_24 
REMARK    7  A    between atoms: N_24  and  C_25 
ROOT
ATOM      1  C   UNL d   1     -24.788  23.340  22.656  0.00  0.00     0.087 A 
ATOM      2  C   UNL d   1     -26.056  22.814  22.834  0.00  0.00     0.073 A 
ATOM      3  C   UNL d   1     -26.901  23.346  23.797  0.00  0.00     0.104 A 
ATOM      4  C   UNL d   1     -26.474  24.405  24.597  0.00  0.00     0.146 A 
ATOM      5  F   UNL d   1     -27.300  24.915  25.537  0.00  0.00    -0.204 F 
ATOM      6  C   UNL d   1     -25.213  24.931  24.433  0.00  0.00     0.064 A 
ATOM      7  C   UNL d   1     -24.357  24.404  23.461  0.00  0.00     0.068 A 
ENDROOT
BRANCH   7   8
ATOM      8  C   UNL d   1     -23.007  24.965  23.282  0.00  0.00     0.259 C 
ATOM      9  O   UNL d   1     -22.852  25.986  22.639  0.00  0.00    -0.267 OA
ATOM     10  N   UNL d   1     -21.942  24.346  23.830  0.00  0.00    -0.318 N 
ATOM     11  H   UNL d   1     -22.053  23.489  24.270  0.00  0.00     0.169 HD
BRANCH  10  12
ATOM     12  C   UNL d   1     -20.676  24.942  23.765  0.00  0.00     0.113 A 
ATOM     13  C   UNL d   1     -20.304  25.894  24.707  0.00  0.00     0.146 A 
ATOM     14  C   UNL d   1     -19.052  26.479  24.639  0.00  0.00     0.045 A 
ATOM     15  F   UNL d   1     -21.164  26.246  25.688  0.00  0.00    -0.204 F 
ATOM     16  C   UNL d   1     -18.171  26.118  23.636  0.00  0.00     0.006 A 
ATOM     17  C   UNL d   1     -18.538  25.172  22.697  0.00  0.00     0.045 A 
ATOM     18  C   UNL d   1     -19.785  24.578  22.761  0.00  0.00     0.146 A 
ATOM     19  F   UNL d   1     -20.140  23.648  21.847  0.00  0.00    -0.204 F 
ENDBRANCH  10  12
ENDBRANCH   7   8
BRANCH   1  20
ATOM     20  O   UNL d   1     -23.964  22.823  21.711  0.00  0.00    -0.336 OA
BRANCH  20  21
ATOM     21  C   UNL d   1     -24.053  23.379  20.398  0.00  0.00     0.232 C 
ATOM     22  C   UNL d   1     -22.665  23.827  19.936  0.00  0.00     0.049 C 
BRANCH  21  23
ATOM     23  C   UNL d   1     -24.596  22.323  19.432  0.00  0.00     0.413 C 
ATOM     24  F   UNL d   1     -23.764  21.199  19.455  0.00  0.00    -0.168 F 
ATOM     25  F   UNL d   1     -25.889  21.954  19.822  0.00  0.00    -0.168 F 
ATOM     26  F   UNL d   1     -24.632  22.850  18.137  0.00  0.00    -0.168 F 
ENDBRANCH  21  23
ENDBRANCH  20  21
ENDBRANCH   1  20
BRANCH   3  27
ATOM     27  N   UNL d   1     -28.183  22.816  23.968  0.00  0.00    -0.178 N 
ATOM     28  C   UNL d   1     -28.571  21.957  24.934  0.00  0.00     0.351 A 
ATOM     29  N   UNL d   1     -29.880  21.697  24.741  0.00  0.00    -0.288 N 
ATOM     30  O   UNL d   1     -27.868  21.501  25.817  0.00  0.00    -0.244 OA
ATOM     31  C   UNL d   1     -30.303  22.405  23.642  0.00  0.00     0.135 A 
ATOM     32  C   UNL d   1     -30.708  20.811  25.561  0.00  0.00     0.162 C 
ATOM     33  N   UNL d   1     -29.304  23.078  23.168  0.00  0.00    -0.149 NA
BRANCH  31  34
ATOM     34  C   UNL d   1     -31.701  22.399  23.080  0.00  0.00     0.057 C 
ATOM     35  C   UNL d   1     -31.761  22.069  21.580  0.00  0.00     0.012 C 
ATOM     36  C   UNL d   1     -33.011  21.231  21.894  0.00  0.00     0.002 C 
ATOM     37  C   UNL d   1     -32.456  21.081  23.321  0.00  0.00     0.012 C 
ENDBRANCH  31  34
ENDBRANCH   3  27
TORSDOF 7
ENDMDL
