MODEL 1
REMARK VINA RESULT:     -11.0      0.000      0.000
REMARK  5 active torsions:
REMARK  status: ('A' for Active; 'I' for Inactive)
REMARK       I    between atoms: C_2  and  N_3 
REMARK    1  A    between atoms: C_2  and  C_17 
REMARK    2  A    between atoms: N_3  and  C_4 
REMARK    3  A    between atoms: C_7  and  O_8 
REMARK    4  A    between atoms: O_8  and  C_9 
REMARK    5  A    between atoms: C_18  and  O_19 
ROOT
ATOM      1  O   UNL d   1     -29.377  23.275  22.591  0.00  0.00    -0.267 OA
ATOM      2  C   UNL d   1     -29.415  22.357  23.390  0.00  0.00     0.263 C 
ATOM      3  N   UNL d   1     -28.271  21.791  23.823  0.00  0.00    -0.323 N 
ATOM      4  H   UNL d   1     -28.299  21.103  24.506  0.00  0.00     0.169 HD
ENDROOT
BRANCH   3   5
ATOM      5  C   UNL d   1     -27.043  22.196  23.287  0.00  0.00     0.035 A 
ATOM      6  C   UNL d   1     -26.577  21.626  22.110  0.00  0.00     0.032 A 
ATOM      7  C   UNL d   1     -25.366  22.026  21.582  0.00  0.00     0.039 A 
ATOM      8  C   UNL d   1     -24.614  22.997  22.227  0.00  0.00     0.076 A 
ATOM      9  C   UNL d   1     -25.078  23.566  23.404  0.00  0.00     0.039 A 
ATOM     10  C   UNL d   1     -26.292  23.171  23.930  0.00  0.00     0.032 A 
BRANCH   8  11
ATOM     11  O   UNL d   1     -23.420  23.390  21.707  0.00  0.00    -0.311 OA
BRANCH  11  12
ATOM     12  C   UNL d   1     -22.612  24.162  22.479  0.00  0.00     0.076 A 
ATOM     13  C   UNL d   1     -21.556  23.588  23.171  0.00  0.00     0.037 A 
ATOM     14  C   UNL d   1     -20.736  24.375  23.956  0.00  0.00     0.003 A 
ATOM     15  C   UNL d   1     -20.965  25.735  24.049  0.00  0.00     0.000 A 
ATOM     16  C   UNL d   1     -22.016  26.311  23.360  0.00  0.00     0.003 A 
ATOM     17  C   UNL d   1     -22.837  25.528  22.571  0.00  0.00     0.037 A 
ENDBRANCH  11  12
ENDBRANCH   8  11
ENDBRANCH   3   5
BRANCH   2  18
ATOM     18  C   UNL d   1     -30.705  21.869  23.880  0.00  0.00     0.115 A 
ATOM     19  C   UNL d   1     -31.858  21.620  23.109  0.00  0.00     0.078 A 
ATOM     20  N   UNL d   1     -32.823  21.177  23.966  0.00  0.00    -0.242 N 
ATOM     21  C   UNL d   1     -32.133  21.745  21.741  0.00  0.00     0.033 A 
ATOM     22  N   UNL d   1     -32.280  21.151  25.255  0.00  0.00    -0.141 NA
ATOM     23  C   UNL d   1     -34.060  20.856  23.494  0.00  0.00     0.119 A 
ATOM     24  C   UNL d   1     -31.033  21.556  25.216  0.00  0.00     0.200 A 
ATOM     25  C   UNL d   1     -34.348  20.968  22.177  0.00  0.00     0.019 A 
ATOM     26  C   UNL d   1     -33.374  21.420  21.277  0.00  0.00     0.004 A 
BRANCH  24  27
ATOM     27  O   UNL d   1     -30.199  21.658  26.282  0.00  0.00    -0.343 OA
ATOM     28  H   UNL d   1     -30.627  21.976  27.088  0.00  0.00     0.219 HD
ENDBRANCH  24  27
ENDBRANCH   2  18
TORSDOF 5
ENDMDL
