MODEL 1
REMARK VINA RESULT:     -10.0      0.000      0.000
REMARK  8 active torsions:
REMARK  status: ('A' for Active; 'I' for Inactive)
REMARK    1  A    between atoms: C_2  and  N_3 
REMARK    2  A    between atoms: C_4  and  C_5 
REMARK       I    between atoms: C_5  and  N_6 
REMARK    3  A    between atoms: N_9  and  C_10 
REMARK    4  A    between atoms: C_12  and  O_13 
REMARK    5  A    between atoms: O_13  and  C_14 
REMARK    6  A    between atoms: C_14  and  C_16 
REMARK    7  A    between atoms: C_20  and  C_21 
REMARK       I    between atoms: C_21  and  N_23 
REMARK    8  A    between atoms: N_23  and  C_24 
ROOT
ATOM      1  C   UNL d   1     -26.843  23.221  23.812  0.00  0.00     0.105 A 
ATOM      2  C   UNL d   1     -25.969  22.739  22.847  0.00  0.00     0.073 A 
ATOM      3  C   UNL d   1     -24.726  23.325  22.683  0.00  0.00     0.087 A 
ATOM      4  C   UNL d   1     -24.349  24.400  23.502  0.00  0.00     0.068 A 
ATOM      5  C   UNL d   1     -25.233  24.875  24.475  0.00  0.00     0.064 A 
ATOM      6  C   UNL d   1     -26.470  24.289  24.626  0.00  0.00     0.146 A 
ATOM      7  F   UNL d   1     -27.323  24.749  25.567  0.00  0.00    -0.204 F 
ENDROOT
BRANCH   1   8
ATOM      8  N   UNL d   1     -28.099  22.630  23.971  0.00  0.00    -0.177 N 
ATOM      9  N   UNL d   1     -28.590  22.032  25.139  0.00  0.00    -0.139 NA
ATOM     10  C   UNL d   1     -29.797  21.597  24.894  0.00  0.00     0.222 A 
ATOM     11  N   UNL d   1     -30.112  21.899  23.580  0.00  0.00    -0.277 N 
ATOM     12  C   UNL d   1     -29.058  22.534  23.028  0.00  0.00     0.351 A 
ATOM     13  O   UNL d   1     -28.986  22.945  21.886  0.00  0.00    -0.244 OA
BRANCH  10  14
ATOM     14  C   UNL d   1     -30.676  20.906  25.855  0.00  0.00     0.287 C 
ATOM     15  N   UNL d   1     -30.516  19.588  26.088  0.00  0.00    -0.363 N 
ATOM     16  H   UNL d   1     -29.824  19.094  25.623  0.00  0.00     0.159 HD
ATOM     17  H   UNL d   1     -31.096  19.133  26.720  0.00  0.00     0.159 HD
ATOM     18  O   UNL d   1     -31.545  21.526  26.438  0.00  0.00    -0.264 OA
ENDBRANCH  10  14
BRANCH  11  19
ATOM     19  C   UNL d   1     -31.374  21.583  22.905  0.00  0.00     0.131 C 
ATOM     20  C   UNL d   1     -32.421  22.642  23.261  0.00  0.00     0.027 C 
ENDBRANCH  11  19
ENDBRANCH   1   8
BRANCH   3  21
ATOM     21  O   UNL d   1     -23.873  22.858  21.736  0.00  0.00    -0.336 OA
BRANCH  21  22
ATOM     22  C   UNL d   1     -24.018  23.386  20.416  0.00  0.00     0.232 C 
ATOM     23  C   UNL d   1     -22.653  23.849  19.900  0.00  0.00     0.049 C 
BRANCH  22  24
ATOM     24  C   UNL d   1     -24.572  22.301  19.491  0.00  0.00     0.413 C 
ATOM     25  F   UNL d   1     -25.877  21.980  19.878  0.00  0.00    -0.168 F 
ATOM     26  F   UNL d   1     -24.579  22.771  18.173  0.00  0.00    -0.168 F 
ATOM     27  F   UNL d   1     -23.766  21.160  19.574  0.00  0.00    -0.168 F 
ENDBRANCH  22  24
ENDBRANCH  21  22
ENDBRANCH   3  21
BRANCH   4  28
ATOM     28  C   UNL d   1     -23.025  25.025  23.336  0.00  0.00     0.259 C 
ATOM     29  O   UNL d   1     -22.897  25.999  22.620  0.00  0.00    -0.267 OA
ATOM     30  N   UNL d   1     -21.954  24.516  23.979  0.00  0.00    -0.319 N 
ATOM     31  H   UNL d   1     -22.069  23.791  24.613  0.00  0.00     0.169 HD
BRANCH  30  32
ATOM     32  C   UNL d   1     -20.677  25.034  23.731  0.00  0.00     0.096 A 
ATOM     33  C   UNL d   1     -20.189  26.081  24.502  0.00  0.00     0.064 A 
ATOM     34  C   UNL d   1     -18.926  26.588  24.257  0.00  0.00     0.026 A 
ATOM     35 CL   UNL d   1     -21.160  26.749  25.776  0.00  0.00    -0.082 Cl
ATOM     36  C   UNL d   1     -18.153  26.060  23.240  0.00  0.00     0.005 A 
ATOM     37  C   UNL d   1     -18.638  25.023  22.465  0.00  0.00     0.045 A 
ATOM     38  C   UNL d   1     -19.897  24.507  22.708  0.00  0.00     0.144 A 
ATOM     39  F   UNL d   1     -20.370  23.493  21.952  0.00  0.00    -0.204 F 
ENDBRANCH  30  32
ENDBRANCH   4  28
TORSDOF 8
ENDMDL
