MODEL 1
REMARK VINA RESULT:     -10.6      0.000      0.000
REMARK  4 active torsions:
REMARK  status: ('A' for Active; 'I' for Inactive)
REMARK    1  A    between atoms: C_8  and  C_9 
REMARK    2  A    between atoms: C_12  and  S_13 
REMARK    3  A    between atoms: S_13  and  C_14 
REMARK    4  A    between atoms: C_14  and  C_15 
REMARK       I    between atoms: C_15  and  N_17 
ROOT
ATOM      1  C   UNL d   1     -27.632  22.448  23.431  0.00  0.00     0.203 A 
ATOM      2  N   UNL d   1     -28.769  22.799  22.881  0.00  0.00    -0.120 NA
ATOM      3  N   UNL d   1     -29.742  22.433  23.639  0.00  0.00    -0.114 NA
ATOM      4  C   UNL d   1     -29.264  21.833  24.704  0.00  0.00     0.231 A 
ATOM      5  O   UNL d   1     -27.922  21.823  24.593  0.00  0.00    -0.263 OA
ENDROOT
BRANCH   1   6
ATOM      6  C   UNL d   1     -26.283  22.685  22.877  0.00  0.00     0.020 A 
ATOM      7  C   UNL d   1     -25.753  21.805  21.924  0.00  0.00     0.018 A 
ATOM      8  C   UNL d   1     -24.507  22.007  21.407  0.00  0.00     0.031 A 
ATOM      9  C   UNL d   1     -23.745  23.098  21.819  0.00  0.00     0.043 A 
ATOM     10  N   UNL d   1     -22.488  23.551  21.485  0.00  0.00    -0.359 N 
ATOM     11  C   UNL d   1     -24.267  23.992  22.773  0.00  0.00    -0.001 A 
ATOM     12  C   UNL d   1     -22.201  24.688  22.188  0.00  0.00     0.012 A 
ATOM     13  H   UNL d   1     -21.895  23.126  20.846  0.00  0.00     0.166 HD
ATOM     14  C   UNL d   1     -20.915  25.468  22.085  0.00  0.00     0.068 C 
ATOM     15  C   UNL d   1     -23.234  25.009  22.984  0.00  0.00    -0.027 A 
ATOM     16  C   UNL d   1     -23.315  26.189  23.916  0.00  0.00     0.051 C 
ATOM     17  C   UNL d   1     -25.542  23.783  23.299  0.00  0.00     0.030 A 
ENDBRANCH   1   6
BRANCH   4  18
ATOM     18  S   UNL d   1     -30.206  21.155  26.030  0.00  0.00    -0.073 SA
BRANCH  18  19
ATOM     19  C   UNL d   1     -31.874  21.612  25.497  0.00  0.00     0.186 C 
BRANCH  19  20
ATOM     20  C   UNL d   1     -32.458  20.502  24.664  0.00  0.00     0.229 C 
ATOM     21  O   UNL d   1     -32.421  19.357  25.066  0.00  0.00    -0.273 OA
ATOM     22  N   UNL d   1     -33.021  20.779  23.471  0.00  0.00    -0.351 N 
ATOM     23  C   UNL d   1     -33.626  19.795  22.560  0.00  0.00     0.126 C 
ATOM     24  C   UNL d   1     -33.139  22.118  22.866  0.00  0.00     0.126 C 
ATOM     25  C   UNL d   1     -34.114  20.564  21.315  0.00  0.00     0.021 C 
ATOM     26  C   UNL d   1     -33.251  21.854  21.342  0.00  0.00     0.021 C 
ENDBRANCH  19  20
ENDBRANCH  18  19
ENDBRANCH   4  18
TORSDOF 4
ENDMDL
