MODEL 1
REMARK VINA RESULT:     -12.9      0.000      0.000
REMARK  4 active torsions:
REMARK  status: ('A' for Active; 'I' for Inactive)
REMARK    1  A    between atoms: C_5  and  C_6 
REMARK    2  A    between atoms: C_6  and  O_8 
REMARK    3  A    between atoms: C_10  and  C_11 
REMARK    4  A    between atoms: C_16  and  C_17 
ROOT
ATOM      1  C   UNL d   1     -26.809  22.698  22.924  0.00  0.00     0.058 A 
ATOM      2  C   UNL d   1     -26.196  23.764  23.584  0.00  0.00     0.170 A 
ATOM      3  F   UNL d   1     -26.891  24.489  24.488  0.00  0.00    -0.202 F 
ATOM      4  C   UNL d   1     -24.877  24.078  23.314  0.00  0.00     0.170 A 
ATOM      5  F   UNL d   1     -24.284  25.109  23.953  0.00  0.00    -0.202 F 
ATOM      6  C   UNL d   1     -24.159  23.329  22.381  0.00  0.00     0.058 A 
ATOM      7  C   UNL d   1     -24.775  22.266  21.716  0.00  0.00     0.170 A 
ATOM      8  F   UNL d   1     -24.081  21.545  20.808  0.00  0.00    -0.202 F 
ATOM      9  C   UNL d   1     -26.091  21.949  21.990  0.00  0.00     0.170 A 
ATOM     10  F   UNL d   1     -26.684  20.918  21.351  0.00  0.00    -0.202 F 
ENDROOT
BRANCH   1  11
ATOM     11  C   UNL d   1     -28.224  22.361  23.214  0.00  0.00    -0.016 A 
ATOM     12  C   UNL d   1     -28.573  21.856  24.465  0.00  0.00     0.033 A 
ATOM     13  C   UNL d   1     -29.897  21.537  24.746  0.00  0.00     0.069 A 
ATOM     14  C   UNL d   1     -30.886  21.726  23.755  0.00  0.00     0.102 A 
ATOM     15  N   UNL d   1     -32.217  21.517  23.725  0.00  0.00    -0.233 NA
ATOM     16  C   UNL d   1     -30.519  22.235  22.499  0.00  0.00     0.064 A 
ATOM     17  C   UNL d   1     -32.689  21.854  22.558  0.00  0.00     0.101 A 
ATOM     18  C   UNL d   1     -34.138  21.760  22.153  0.00  0.00     0.091 C 
ATOM     19  N   UNL d   1     -31.686  22.305  21.761  0.00  0.00    -0.343 N 
ATOM     20  H   UNL d   1     -31.772  22.616  20.847  0.00  0.00     0.167 HD
ATOM     21  C   UNL d   1     -29.197  22.554  22.235  0.00  0.00     0.044 A 
BRANCH  13  22
ATOM     22  C   UNL d   1     -30.266  21.004  26.069  0.00  0.00     0.178 C 
ATOM     23  O   UNL d   1     -30.199  21.715  27.052  0.00  0.00    -0.646 OA
BRANCH  22  24
ATOM     24  O   UNL d   1     -30.681  19.726  26.189  0.00  0.00    -0.773 OA
ATOM     25  H   UNL d   1     -31.508  19.576  26.665  0.00  0.00     0.167 HD
ENDBRANCH  22  24
ENDBRANCH  13  22
ENDBRANCH   1  11
BRANCH   6  26
ATOM     26  C   UNL d   1     -22.745  23.665  22.091  0.00  0.00    -0.020 A 
ATOM     27  C   UNL d   1     -22.410  24.327  20.910  0.00  0.00     0.012 A 
ATOM     28  C   UNL d   1     -21.092  24.637  20.645  0.00  0.00     0.001 A 
ATOM     29  C   UNL d   1     -20.103  24.295  21.550  0.00  0.00     0.000 A 
ATOM     30  C   UNL d   1     -20.429  23.639  22.724  0.00  0.00     0.001 A 
ATOM     31  C   UNL d   1     -21.744  23.327  23.001  0.00  0.00     0.012 A 
ENDBRANCH   6  26
TORSDOF 4
ENDMDL
