MODEL 1
REMARK VINA RESULT:     -11.4      0.000      0.000
REMARK  7 active torsions:
REMARK  status: ('A' for Active; 'I' for Inactive)
REMARK       I    between atoms: C_2  and  N_3 
REMARK    1  A    between atoms: C_2  and  C_29 
REMARK    2  A    between atoms: N_3  and  C_4 
REMARK    3  A    between atoms: C_11  and  C_12 
REMARK    4  A    between atoms: C_12  and  C_13 
REMARK    5  A    between atoms: C_13  and  C_14 
REMARK    6  A    between atoms: CA_15  and  C_16 
REMARK    7  A    between atoms: C_16  and  OXT_18 
ROOT
ATOM      1  C   UNL d   1     -23.776  23.814  21.666  0.00  0.00     0.046 A 
ATOM      2  C   UNL d   1     -23.049  23.654  20.505  0.00  0.00     0.030 A 
ATOM      3  C   UNL d   1     -23.459  22.755  19.526  0.00  0.00     0.003 A 
ATOM      4  C   UNL d   1     -24.588  22.010  19.686  0.00  0.00     0.012 A 
ATOM      5  C   UNL d   1     -25.358  22.143  20.854  0.00  0.00    -0.024 A 
ATOM      6  C   UNL d   1     -26.527  21.386  21.046  0.00  0.00     0.013 A 
ATOM      7  C   UNL d   1     -27.249  21.540  22.189  0.00  0.00     0.008 A 
ATOM      8  C   UNL d   1     -26.847  22.438  23.176  0.00  0.00    -0.057 A 
ATOM      9  C   UNL d   1     -25.716  23.182  23.027  0.00  0.00     0.021 A 
ATOM     10  C   UNL d   1     -24.950  23.055  21.859  0.00  0.00     0.001 A 
ENDROOT
BRANCH   8  11
ATOM     11  C   UNL d   1     -27.670  22.581  24.430  0.00  0.00     0.043 C 
BRANCH  11  12
ATOM     12  C   UNL d   1     -29.128  22.855  24.055  0.00  0.00     0.051 C 
BRANCH  12  13
ATOM     13  C   UNL d   1     -30.012  21.809  24.684  0.00  0.00     0.044 A 
ATOM     14  C   UNL d   1     -29.599  21.113  25.909  0.00  0.00     0.258 A 
ATOM     15  N   UNL d   1     -30.423  20.186  26.440  0.00  0.00    -0.275 N 
ATOM     16  O   UNL d   1     -28.534  21.370  26.438  0.00  0.00    -0.267 OA
ATOM     17  C   UNL d   1     -31.597  19.900  25.850  0.00  0.00     0.327 A 
ATOM     18  H   UNL d   1     -30.166  19.720  27.252  0.00  0.00     0.173 HD
ATOM     19  N   UNL d   1     -31.992  20.520  24.727  0.00  0.00    -0.302 N 
ATOM     20  O   UNL d   1     -32.319  19.058  26.347  0.00  0.00    -0.247 OA
ATOM     21  CA  UNL d   1     -31.208  21.482  24.127  0.00  0.00     0.122 A 
ATOM     22  H   UNL d   1     -32.846  20.287  24.330  0.00  0.00     0.171 HD
BRANCH  21  23
ATOM     23  C   UNL d   1     -31.665  22.154  22.887  0.00  0.00     0.194 C 
ATOM     24  O   UNL d   1     -30.986  22.098  21.883  0.00  0.00    -0.645 OA
BRANCH  23  25
ATOM     25  OXT UNL d   1     -32.831  22.827  22.876  0.00  0.00    -0.772 OA
ATOM     26  HXT UNL d   1     -33.064  23.316  23.676  0.00  0.00     0.167 HD
ENDBRANCH  23  25
ENDBRANCH  21  23
ENDBRANCH  12  13
ENDBRANCH  11  12
ENDBRANCH   8  11
BRANCH   1  27
ATOM     27  N   UNL d   1     -23.354  24.719  22.641  0.00  0.00    -0.322 N 
ATOM     28  C   UNL d   1     -22.158  24.557  23.239  0.00  0.00     0.256 C 
ATOM     29  O   UNL d   1     -21.483  23.576  22.991  0.00  0.00    -0.267 OA
ATOM     30  H   UNL d   1     -23.923  25.465  22.888  0.00  0.00     0.169 HD
BRANCH  28  31
ATOM     31  C   UNL d   1     -21.667  25.570  24.197  0.00  0.00     0.032 A 
ATOM     32  C   UNL d   1     -22.364  26.767  24.370  0.00  0.00     0.017 A 
ATOM     33  C   UNL d   1     -21.900  27.707  25.267  0.00  0.00     0.001 A 
ATOM     34  C   UNL d   1     -20.747  27.466  25.992  0.00  0.00     0.000 A 
ATOM     35  C   UNL d   1     -20.051  26.283  25.825  0.00  0.00     0.001 A 
ATOM     36  C   UNL d   1     -20.506  25.331  24.936  0.00  0.00     0.017 A 
ENDBRANCH  28  31
ENDBRANCH   1  27
TORSDOF 7
ENDMDL
