MODEL 1
REMARK VINA RESULT:      -7.3      0.000      0.000
REMARK  7 active torsions:
REMARK  status: ('A' for Active; 'I' for Inactive)
REMARK    1  A    between atoms: C_5  and  O_6 
REMARK    2  A    between atoms: C_7  and  C_8 
REMARK    3  A    between atoms: C_8  and  C_9 
REMARK    4  A    between atoms: C_14  and  O_15 
REMARK    5  A    between atoms: C_22  and  O_24 
REMARK    6  A    between atoms: C_25  and  O_26 
REMARK    7  A    between atoms: C_27  and  C_28 
ROOT
ATOM      1  C   UNL d   1     -26.302  23.068  22.886  0.00  0.00     0.032 C 
ATOM      2  C   UNL d   1     -25.002  22.856  22.108  0.00  0.00    -0.033 C 
ATOM      3  C   UNL d   1     -24.194  21.746  22.780  0.00  0.00     0.016 C 
ATOM      4  C   UNL d   1     -25.363  22.396  20.687  0.00  0.00     0.012 C 
ATOM      5  C   UNL d   1     -24.092  22.249  19.853  0.00  0.00     0.033 C 
ATOM      6  C   UNL d   1     -23.396  23.599  19.719  0.00  0.00     0.126 C 
ATOM      7  C   UNL d   1     -23.058  24.198  21.084  0.00  0.00    -0.017 C 
ATOM      8  C   UNL d   1     -22.675  25.677  20.830  0.00  0.00     0.018 C 
ATOM      9  C   UNL d   1     -21.826  23.507  21.667  0.00  0.00     0.018 C 
ATOM     10  C   UNL d   1     -24.244  24.171  22.023  0.00  0.00     0.004 C 
ATOM     11  C   UNL d   1     -23.893  24.649  23.432  0.00  0.00     0.009 C 
ATOM     12  C   UNL d   1     -25.207  25.020  24.125  0.00  0.00     0.038 C 
ATOM     13  C   UNL d   1     -26.165  23.840  24.185  0.00  0.00     0.059 C 
ATOM     14  C   UNL d   1     -25.774  22.908  25.338  0.00  0.00     0.046 C 
ENDROOT
BRANCH   1  15
ATOM     15  C   UNL d   1     -26.921  21.694  23.195  0.00  0.00     0.053 C 
BRANCH  15  16
ATOM     16  C   UNL d   1     -28.424  21.805  23.186  0.00  0.00     0.011 A 
ATOM     17  C   UNL d   1     -29.100  21.974  21.987  0.00  0.00     0.097 A 
ATOM     18  C   UNL d   1     -30.489  22.079  21.971  0.00  0.00     0.074 A 
ATOM     19  C   UNL d   1     -31.199  22.017  23.136  0.00  0.00    -0.021 A 
ATOM     20 CL   UNL d   1     -31.322  22.288  20.463  0.00  0.00    -0.081 Cl
ATOM     21  C   UNL d   1     -32.702  22.131  23.109  0.00  0.00     0.051 C 
ATOM     22  C   UNL d   1     -30.532  21.847  24.357  0.00  0.00     0.043 A 
ATOM     23  C   UNL d   1     -29.131  21.735  24.374  0.00  0.00     0.088 A 
BRANCH  17  24
ATOM     24  O   UNL d   1     -28.405  22.036  20.824  0.00  0.00    -0.358 OA
ATOM     25  H   UNL d   1     -28.273  22.936  20.492  0.00  0.00     0.217 HD
ENDBRANCH  17  24
BRANCH  22  26
ATOM     26  C   UNL d   1     -31.292  21.780  25.608  0.00  0.00     0.273 C 
ATOM     27  O   UNL d   1     -30.977  20.982  26.467  0.00  0.00    -0.301 OA
ENDBRANCH  22  26
BRANCH  23  28
ATOM     28  O   UNL d   1     -28.474  21.566  25.549  0.00  0.00    -0.359 OA
ATOM     29  H   UNL d   1     -27.953  22.333  25.823  0.00  0.00     0.217 HD
ENDBRANCH  23  28
ENDBRANCH  15  16
ENDBRANCH   1  15
BRANCH  13  30
ATOM     30  O   UNL d   1     -27.473  24.371  24.509  0.00  0.00    -0.390 OA
ATOM     31  H   UNL d   1     -28.146  24.197  23.837  0.00  0.00     0.210 HD
ENDBRANCH  13  30
BRANCH   6  32
ATOM     32  O   UNL d   1     -22.190  23.440  18.965  0.00  0.00    -0.395 OA
ATOM     33  H   UNL d   1     -21.732  22.605  19.128  0.00  0.00     0.210 HD
ENDBRANCH   6  32
TORSDOF 7
ENDMDL
