MODEL 1
REMARK VINA RESULT:     -10.7      0.000      0.000
REMARK  6 active torsions:
REMARK  status: ('A' for Active; 'I' for Inactive)
REMARK    1  A    between atoms: C_8  and  N_9 
REMARK       I    between atoms: N_9  and  C_10 
REMARK    2  A    between atoms: C_10  and  C_12 
REMARK    3  A    between atoms: C_16  and  N_17 
REMARK    4  A    between atoms: C_29  and  O_30 
REMARK    5  A    between atoms: O_30  and  C_31 
REMARK    6  A    between atoms: C_31  and  C_33 
ROOT
ATOM      1  C   UNL d   1     -24.151  24.473  23.369  0.00  0.00     0.068 A 
ATOM      2  C   UNL d   1     -25.065  24.929  24.326  0.00  0.00     0.064 A 
ATOM      3  C   UNL d   1     -26.307  24.342  24.423  0.00  0.00     0.146 A 
ATOM      4  F   UNL d   1     -27.190  24.786  25.346  0.00  0.00    -0.204 F 
ATOM      5  C   UNL d   1     -26.654  23.288  23.579  0.00  0.00     0.104 A 
ATOM      6  C   UNL d   1     -25.752  22.827  22.630  0.00  0.00     0.073 A 
ATOM      7  C   UNL d   1     -24.502  23.413  22.520  0.00  0.00     0.087 A 
ENDROOT
BRANCH   1   8
ATOM      8  C   UNL d   1     -22.823  25.100  23.257  0.00  0.00     0.259 C 
ATOM      9  N   UNL d   1     -21.762  24.546  23.878  0.00  0.00    -0.320 N 
ATOM     10  H   UNL d   1     -21.855  23.693  24.330  0.00  0.00     0.169 HD
ATOM     11  O   UNL d   1     -22.684  26.116  22.604  0.00  0.00    -0.267 OA
BRANCH   9  12
ATOM     12  C   UNL d   1     -20.526  25.204  23.869  0.00  0.00     0.080 A 
ATOM     13  C   UNL d   1     -20.234  26.146  24.847  0.00  0.00    -0.032 A 
ATOM     14  C   UNL d   1     -21.247  26.462  25.917  0.00  0.00     0.050 C 
ATOM     15  C   UNL d   1     -19.011  26.789  24.840  0.00  0.00     0.009 A 
ATOM     16  C   UNL d   1     -18.082  26.504  23.856  0.00  0.00     0.004 A 
ATOM     17  C   UNL d   1     -18.370  25.566  22.881  0.00  0.00     0.045 A 
ATOM     18  C   UNL d   1     -19.589  24.915  22.884  0.00  0.00     0.143 A 
ATOM     19  F   UNL d   1     -19.869  23.999  21.931  0.00  0.00    -0.204 F 
ENDBRANCH   9  12
ENDBRANCH   1   8
BRANCH   7  20
ATOM     20  O   UNL d   1     -23.620  22.962  21.592  0.00  0.00    -0.336 OA
BRANCH  20  21
ATOM     21  C   UNL d   1     -23.754  23.475  20.266  0.00  0.00     0.232 C 
ATOM     22  C   UNL d   1     -22.379  23.889  19.737  0.00  0.00     0.049 C 
BRANCH  21  23
ATOM     23  C   UNL d   1     -24.345  22.394  19.359  0.00  0.00     0.413 C 
ATOM     24  F   UNL d   1     -25.602  22.016  19.842  0.00  0.00    -0.168 F 
ATOM     25  F   UNL d   1     -24.476  22.897  18.059  0.00  0.00    -0.168 F 
ATOM     26  F   UNL d   1     -23.496  21.282  19.345  0.00  0.00    -0.168 F 
ENDBRANCH  21  23
ENDBRANCH  20  21
ENDBRANCH   7  20
BRANCH   5  27
ATOM     27  N   UNL d   1     -27.914  22.695  23.688  0.00  0.00    -0.178 N 
ATOM     28  C   UNL d   1     -28.357  21.940  24.719  0.00  0.00     0.351 A 
ATOM     29  N   UNL d   1     -29.610  21.574  24.434  0.00  0.00    -0.282 N 
ATOM     30  O   UNL d   1     -27.732  21.652  25.723  0.00  0.00    -0.244 OA
ATOM     31  C   UNL d   1     -29.949  22.099  23.194  0.00  0.00     0.155 A 
ATOM     32  C   UNL d   1     -30.547  20.759  25.222  0.00  0.00     0.137 C 
ATOM     33  N   UNL d   1     -28.951  22.767  22.742  0.00  0.00    -0.147 NA
ATOM     34  C   UNL d   1     -31.305  21.862  22.561  0.00  0.00     0.248 C 
ATOM     35  O   UNL d   1     -32.283  22.507  23.385  0.00  0.00    -0.384 OA
ATOM     36  C   UNL d   1     -32.730  21.786  24.513  0.00  0.00     0.169 C 
ATOM     37  C   UNL d   1     -31.718  21.662  25.629  0.00  0.00     0.046 C 
ENDBRANCH   5  27
TORSDOF 6
ENDMDL
