MODEL 1
REMARK VINA RESULT:      -9.9      0.000      0.000
REMARK  3 active torsions:
REMARK  status: ('A' for Active; 'I' for Inactive)
REMARK    1  A    between atoms: N_9  and  C_10 
REMARK    2  A    between atoms: C_13  and  C_14 
REMARK       I    between atoms: C_14  and  N_16 
REMARK    3  A    between atoms: N_16  and  C_17 
ROOT
ATOM      1  C   UNL d   1     -28.933  22.009  24.258  0.00  0.00     0.083 A 
ATOM      2  C   UNL d   1     -28.604  21.957  22.953  0.00  0.00     0.039 A 
ATOM      3  C   UNL d   1     -27.430  22.586  22.626  0.00  0.00     0.027 A 
ATOM      4  C   UNL d   1     -26.798  23.149  23.701  0.00  0.00     0.074 A 
ATOM      5  S   UNL d   1     -27.751  22.859  25.149  0.00  0.00    -0.067 SA
ENDROOT
BRANCH   1   6
ATOM      6  N   UNL d   1     -30.080  21.442  24.808  0.00  0.00    -0.297 N 
ATOM      7  C   UNL d   1     -30.188  20.869  26.041  0.00  0.00     0.216 A 
ATOM      8  N   UNL d   1     -31.402  20.443  26.230  0.00  0.00    -0.238 NA
ATOM      9  C   UNL d   1     -32.158  20.717  25.135  0.00  0.00     0.123 A 
ATOM     10  C   UNL d   1     -33.497  20.476  24.805  0.00  0.00     0.147 A 
ATOM     11  C   UNL d   1     -31.323  21.356  24.206  0.00  0.00     0.073 A 
ATOM     12  C   UNL d   1     -33.982  20.879  23.579  0.00  0.00     0.051 A 
ATOM     13  F   UNL d   1     -34.313  19.858  25.687  0.00  0.00    -0.203 F 
ATOM     14  C   UNL d   1     -33.150  21.516  22.668  0.00  0.00    -0.057 A 
ATOM     15  C   UNL d   1     -33.697  21.949  21.332  0.00  0.00     0.048 C 
ATOM     16  C   UNL d   1     -31.828  21.754  22.976  0.00  0.00     0.039 A 
ENDBRANCH   1   6
BRANCH   4  17
ATOM     17  C   UNL d   1     -25.531  23.877  23.652  0.00  0.00     0.258 C 
ATOM     18  O   UNL d   1     -25.517  25.085  23.801  0.00  0.00    -0.267 OA
ATOM     19  N   UNL d   1     -24.379  23.209  23.443  0.00  0.00    -0.352 N 
ATOM     20  H   UNL d   1     -24.389  22.247  23.325  0.00  0.00     0.163 HD
BRANCH  19  21
ATOM     21  C   UNL d   1     -23.109  23.939  23.394  0.00  0.00     0.084 A 
ATOM     22  C   UNL d   1     -21.820  23.119  23.462  0.00  0.00     0.027 A 
ATOM     23  C   UNL d   1     -22.244  23.769  22.143  0.00  0.00     0.027 A 
ENDBRANCH  19  21
ENDBRANCH   4  17
TORSDOF 3
ENDMDL
