MODEL 1
REMARK VINA RESULT:      -9.8      0.000      0.000
REMARK  8 active torsions:
REMARK  status: ('A' for Active; 'I' for Inactive)
REMARK    1  A    between atoms: O_2  and  C_3 
REMARK    2  A    between atoms: C_7  and  C_8 
REMARK    3  A    between atoms: C_12  and  N_13 
REMARK       I    between atoms: N_13  and  C_14 
REMARK    4  A    between atoms: C_14  and  C_16 
REMARK    5  A    between atoms: C_19  and  O_21 
REMARK    6  A    between atoms: C_23  and  O_24 
REMARK    7  A    between atoms: O_24  and  C_25 
REMARK    8  A    between atoms: C_25  and  C_26 
ROOT
ATOM      1  C   UNL d   1     -30.763  21.911  23.857  0.00  0.00     0.141 C 
ATOM      2  C   UNL d   1     -30.834  21.631  25.260  0.00  0.00     0.107 C 
ATOM      3  N   UNL d   1     -30.889  21.409  26.372  0.00  0.00    -0.191 NA
ATOM      4  C   UNL d   1     -31.883  21.816  23.085  0.00  0.00     0.065 C 
ATOM      5  C   UNL d   1     -33.196  21.416  23.709  0.00  0.00     0.077 C 
ENDROOT
BRANCH   1   6
ATOM      6  C   UNL d   1     -29.483  22.300  23.248  0.00  0.00     0.269 C 
ATOM      7  N   UNL d   1     -28.347  21.668  23.607  0.00  0.00    -0.320 N 
ATOM      8  H   UNL d   1     -28.384  20.905  24.204  0.00  0.00     0.169 HD
ATOM      9  O   UNL d   1     -29.447  23.193  22.423  0.00  0.00    -0.266 OA
BRANCH   7  10
ATOM     10  C   UNL d   1     -27.115  22.114  23.116  0.00  0.00     0.076 A 
ATOM     11  C   UNL d   1     -26.622  21.608  21.915  0.00  0.00     0.144 A 
ATOM     12  C   UNL d   1     -25.408  22.044  21.427  0.00  0.00     0.059 A 
ATOM     13  F   UNL d   1     -27.335  20.690  21.227  0.00  0.00    -0.204 F 
ATOM     14  C   UNL d   1     -24.672  22.992  22.136  0.00  0.00     0.011 A 
ATOM     15  C   UNL d   1     -25.164  23.494  23.344  0.00  0.00     0.082 A 
ATOM     16  C   UNL d   1     -26.387  23.057  23.826  0.00  0.00     0.070 A 
BRANCH  14  17
ATOM     17  C   UNL d   1     -23.366  23.462  21.614  0.00  0.00    -0.021 A 
ATOM     18  C   UNL d   1     -23.263  23.929  20.305  0.00  0.00     0.012 A 
ATOM     19  C   UNL d   1     -22.047  24.371  19.824  0.00  0.00     0.004 A 
ATOM     20  C   UNL d   1     -20.928  24.347  20.635  0.00  0.00     0.037 A 
ATOM     21  C   UNL d   1     -21.020  23.879  21.938  0.00  0.00     0.069 A 
ATOM     22  C   UNL d   1     -22.236  23.433  22.430  0.00  0.00     0.049 A 
BRANCH  21  23
ATOM     23  O   UNL d   1     -19.918  23.857  22.733  0.00  0.00    -0.356 OA
ATOM     24  C   UNL d   1     -19.294  25.113  23.009  0.00  0.00     0.210 C 
ENDBRANCH  21  23
ENDBRANCH  14  17
BRANCH  15  25
ATOM     25  O   UNL d   1     -24.448  24.413  24.043  0.00  0.00    -0.350 OA
BRANCH  25  26
ATOM     26  C   UNL d   1     -24.907  25.765  23.997  0.00  0.00     0.179 C 
BRANCH  26  27
ATOM     27  C   UNL d   1     -23.708  26.707  23.866  0.00  0.00     0.002 C 
ATOM     28  C   UNL d   1     -22.548  26.179  24.712  0.00  0.00     0.011 C 
ATOM     29  C   UNL d   1     -23.276  26.783  22.400  0.00  0.00     0.011 C 
ENDBRANCH  26  27
ENDBRANCH  25  26
ENDBRANCH  15  25
ENDBRANCH   7  10
ENDBRANCH   1   6
BRANCH   4  30
ATOM     30  O   UNL d   1     -31.817  22.078  21.769  0.00  0.00    -0.364 OA
ATOM     31  H   UNL d   1     -31.287  21.477  21.228  0.00  0.00     0.217 HD
ENDBRANCH   4  30
TORSDOF 8
ENDMDL
