MODEL 1
REMARK VINA RESULT:     -10.8      0.000      0.000
REMARK  5 active torsions:
REMARK  status: ('A' for Active; 'I' for Inactive)
REMARK    1  A    between atoms: C_5  and  N_6 
REMARK    2  A    between atoms: N_6  and  C_7 
REMARK    3  A    between atoms: C_10  and  N_11 
REMARK    4  A    between atoms: C_21  and  C_22 
REMARK    5  A    between atoms: C_22  and  O_24 
ROOT
ATOM      1  C   UNL d   1     -27.874  22.124  24.121  0.00  0.00     0.051 A 
ATOM      2  C   UNL d   1     -27.359  23.180  24.858  0.00  0.00     0.148 A 
ATOM      3  N   UNL d   1     -26.259  23.798  24.473  0.00  0.00    -0.246 NA
ATOM      4  C   UNL d   1     -25.606  23.439  23.378  0.00  0.00     0.111 A 
ATOM      5  C   UNL d   1     -26.064  22.389  22.590  0.00  0.00    -0.019 A 
ATOM      6  C   UNL d   1     -25.315  21.988  21.346  0.00  0.00     0.052 C 
ATOM      7  C   UNL d   1     -27.211  21.714  22.966  0.00  0.00     0.041 A 
ENDROOT
BRANCH   1   8
ATOM      8  N   UNL d   1     -29.043  21.473  24.536  0.00  0.00    -0.354 N 
ATOM      9  H   UNL d   1     -29.023  20.887  25.309  0.00  0.00     0.166 HD
BRANCH   8  10
ATOM     10  C   UNL d   1     -30.229  21.666  23.842  0.00  0.00     0.049 A 
ATOM     11  C   UNL d   1     -30.205  22.121  22.529  0.00  0.00     0.031 A 
ATOM     12  C   UNL d   1     -31.385  22.318  21.843  0.00  0.00     0.009 A 
ATOM     13  C   UNL d   1     -32.603  22.055  22.452  0.00  0.00    -0.061 A 
ATOM     14  C   UNL d   1     -33.884  22.270  21.688  0.00  0.00     0.048 C 
ATOM     15  C   UNL d   1     -32.648  21.605  23.752  0.00  0.00     0.027 A 
ATOM     16  C   UNL d   1     -31.461  21.405  24.463  0.00  0.00     0.064 A 
BRANCH  16  17
ATOM     17  C   UNL d   1     -31.503  20.923  25.855  0.00  0.00     0.178 C 
ATOM     18  O   UNL d   1     -32.241  20.006  26.158  0.00  0.00    -0.646 OA
BRANCH  17  19
ATOM     19  O   UNL d   1     -30.724  21.498  26.791  0.00  0.00    -0.773 OA
ATOM     20  H   UNL d   1     -30.256  22.306  26.538  0.00  0.00     0.167 HD
ENDBRANCH  17  19
ENDBRANCH  16  17
ENDBRANCH   8  10
ENDBRANCH   1   8
BRANCH   4  21
ATOM     21  N   UNL d   1     -24.449  24.121  23.013  0.00  0.00    -0.267 NA
ATOM     22  C   UNL d   1     -24.499  25.454  23.431  0.00  0.00     0.097 C 
ATOM     23  C   UNL d   1     -23.336  26.283  22.844  0.00  0.00     0.015 C 
ATOM     24  C   UNL d   1     -22.076  25.977  23.615  0.00  0.00     0.001 C 
ATOM     25  C   UNL d   1     -21.246  24.848  22.970  0.00  0.00     0.001 C 
ATOM     26  C   UNL d   1     -22.134  23.697  22.467  0.00  0.00     0.015 C 
ATOM     27  C   UNL d   1     -23.243  23.384  23.440  0.00  0.00     0.097 C 
ENDBRANCH   4  21
TORSDOF 5
ENDMDL
