MODEL 1
REMARK VINA RESULT:     -11.4      0.000      0.000
REMARK  7 active torsions:
REMARK  status: ('A' for Active; 'I' for Inactive)
REMARK    1  A    between atoms: C_2  and  O_3 
REMARK    2  A    between atoms: C_2  and  C_4 
REMARK    3  A    between atoms: C_5  and  C_6 
REMARK       I    between atoms: C_6  and  N_8 
REMARK    4  A    between atoms: N_8  and  C_9 
REMARK    5  A    between atoms: C_13  and  C_14 
REMARK    6  A    between atoms: C_18  and  O_19 
REMARK    7  A    between atoms: O_19  and  C_20 
ROOT
ATOM      1  C   UNL d   1     -27.705  21.976  23.476  0.00  0.00     0.113 A 
ATOM      2  C   UNL d   1     -27.058  22.837  24.357  0.00  0.00     0.147 A 
ATOM      3  F   UNL d   1     -27.642  23.166  25.530  0.00  0.00    -0.204 F 
ATOM      4  C   UNL d   1     -25.817  23.352  24.035  0.00  0.00     0.057 A 
ATOM      5  C   UNL d   1     -25.217  23.016  22.823  0.00  0.00    -0.020 A 
ATOM      6  C   UNL d   1     -25.868  22.158  21.938  0.00  0.00     0.057 A 
ATOM      7  C   UNL d   1     -27.107  21.641  22.264  0.00  0.00     0.147 A 
ATOM      8  F   UNL d   1     -27.738  20.809  21.407  0.00  0.00    -0.204 F 
ENDROOT
BRANCH   1   9
ATOM      9  N   UNL d   1     -28.959  21.454  23.804  0.00  0.00    -0.318 N 
ATOM     10  C   UNL d   1     -30.079  22.086  23.401  0.00  0.00     0.253 C 
ATOM     11  O   UNL d   1     -29.999  23.078  22.701  0.00  0.00    -0.268 OA
ATOM     12  H   UNL d   1     -29.024  20.637  24.322  0.00  0.00     0.169 HD
BRANCH  10  13
ATOM     13  C   UNL d   1     -31.403  21.576  23.807  0.00  0.00     0.023 C 
ATOM     14  C   UNL d   1     -31.681  21.042  25.004  0.00  0.00     0.027 C 
ATOM     15  C   UNL d   1     -33.134  20.632  25.078  0.00  0.00     0.046 C 
ATOM     16  C   UNL d   1     -33.613  20.600  23.609  0.00  0.00     0.010 C 
ATOM     17  C   UNL d   1     -32.636  21.589  22.934  0.00  0.00     0.045 C 
BRANCH  14  18
ATOM     18  C   UNL d   1     -30.705  20.877  26.098  0.00  0.00     0.172 C 
ATOM     19  O   UNL d   1     -30.359  21.839  26.754  0.00  0.00    -0.646 OA
BRANCH  18  20
ATOM     20  O   UNL d   1     -30.201  19.658  26.371  0.00  0.00    -0.773 OA
ATOM     21  H   UNL d   1     -29.306  19.625  26.737  0.00  0.00     0.167 HD
ENDBRANCH  18  20
ENDBRANCH  14  18
ENDBRANCH  10  13
ENDBRANCH   1   9
BRANCH   5  22
ATOM     22  C   UNL d   1     -23.887  23.572  22.474  0.00  0.00    -0.023 A 
ATOM     23  C   UNL d   1     -23.022  23.995  23.479  0.00  0.00     0.049 A 
ATOM     24  C   UNL d   1     -21.779  24.510  23.147  0.00  0.00     0.079 A 
ATOM     25  C   UNL d   1     -21.402  24.609  21.815  0.00  0.00     0.037 A 
ATOM     26  C   UNL d   1     -22.263  24.192  20.817  0.00  0.00     0.004 A 
ATOM     27  C   UNL d   1     -23.501  23.675  21.138  0.00  0.00     0.012 A 
BRANCH  24  28
ATOM     28  O   UNL d   1     -20.930  24.921  24.125  0.00  0.00    -0.255 OA
BRANCH  28  29
ATOM     29  C   UNL d   1     -21.095  26.256  24.609  0.00  0.00     0.530 C 
ATOM     30  F   UNL d   1     -21.529  26.220  25.938  0.00  0.00    -0.144 F 
ATOM     31  F   UNL d   1     -19.872  26.932  24.536  0.00  0.00    -0.144 F 
ATOM     32  F   UNL d   1     -22.043  26.921  23.826  0.00  0.00    -0.144 F 
ENDBRANCH  28  29
ENDBRANCH  24  28
ENDBRANCH   5  22
TORSDOF 7
ENDMDL
