MODEL 1
REMARK VINA RESULT:      -9.7      0.000      0.000
REMARK  9 active torsions:
REMARK  status: ('A' for Active; 'I' for Inactive)
REMARK    1  A    between atoms: C_2  and  N_3 
REMARK    2  A    between atoms: C_4  and  C_5 
REMARK    3  A    between atoms: C_5  and  O_6 
REMARK    4  A    between atoms: N_8  and  C_9 
REMARK    5  A    between atoms: C_11  and  O_12 
REMARK    6  A    between atoms: O_12  and  C_13 
REMARK    7  A    between atoms: C_13  and  C_15 
REMARK    8  A    between atoms: C_19  and  C_20 
REMARK       I    between atoms: C_20  and  N_22 
REMARK    9  A    between atoms: N_22  and  C_23 
ROOT
ATOM      1  C   UNL d   1     -26.746  23.340  23.600  0.00  0.00     0.104 A 
ATOM      2  C   UNL d   1     -25.858  22.858  22.647  0.00  0.00     0.073 A 
ATOM      3  C   UNL d   1     -24.593  23.409  22.539  0.00  0.00     0.087 A 
ATOM      4  C   UNL d   1     -24.207  24.446  23.401  0.00  0.00     0.068 A 
ATOM      5  C   UNL d   1     -25.106  24.921  24.362  0.00  0.00     0.064 A 
ATOM      6  C   UNL d   1     -26.365  24.370  24.458  0.00  0.00     0.146 A 
ATOM      7  F   UNL d   1     -27.231  24.829  25.386  0.00  0.00    -0.204 F 
ENDROOT
BRANCH   4   8
ATOM      8  C   UNL d   1     -22.860  25.032  23.295  0.00  0.00     0.259 C 
ATOM      9  O   UNL d   1     -22.700  26.086  22.709  0.00  0.00    -0.267 OA
ATOM     10  N   UNL d   1     -21.804  24.402  23.848  0.00  0.00    -0.318 N 
ATOM     11  H   UNL d   1     -21.917  23.522  24.241  0.00  0.00     0.169 HD
BRANCH  10  12
ATOM     12  C   UNL d   1     -20.546  25.017  23.854  0.00  0.00     0.113 A 
ATOM     13  C   UNL d   1     -19.647  24.774  22.822  0.00  0.00     0.146 A 
ATOM     14  C   UNL d   1     -18.405  25.384  22.831  0.00  0.00     0.045 A 
ATOM     15  F   UNL d   1     -19.986  23.945  21.810  0.00  0.00    -0.204 F 
ATOM     16  C   UNL d   1     -18.057  26.233  23.866  0.00  0.00     0.006 A 
ATOM     17  C   UNL d   1     -18.949  26.477  24.895  0.00  0.00     0.045 A 
ATOM     18  C   UNL d   1     -20.195  25.875  24.889  0.00  0.00     0.146 A 
ATOM     19  F   UNL d   1     -21.067  26.118  25.892  0.00  0.00    -0.204 F 
ENDBRANCH  10  12
ENDBRANCH   4   8
BRANCH   3  20
ATOM     20  O   UNL d   1     -23.726  22.942  21.605  0.00  0.00    -0.336 OA
BRANCH  20  21
ATOM     21  C   UNL d   1     -23.855  23.463  20.280  0.00  0.00     0.232 C 
ATOM     22  C   UNL d   1     -22.482  23.904  19.769  0.00  0.00     0.049 C 
BRANCH  21  23
ATOM     23  C   UNL d   1     -24.420  22.380  19.359  0.00  0.00     0.413 C 
ATOM     24  F   UNL d   1     -23.554  21.282  19.345  0.00  0.00    -0.168 F 
ATOM     25  F   UNL d   1     -25.675  21.978  19.828  0.00  0.00    -0.168 F 
ATOM     26  F   UNL d   1     -24.548  22.892  18.063  0.00  0.00    -0.168 F 
ENDBRANCH  21  23
ENDBRANCH  20  21
ENDBRANCH   3  20
BRANCH   1  27
ATOM     27  N   UNL d   1     -28.024  22.785  23.702  0.00  0.00    -0.178 N 
ATOM     28  N   UNL d   1     -29.077  22.951  22.792  0.00  0.00    -0.147 NA
ATOM     29  C   UNL d   1     -30.096  22.284  23.231  0.00  0.00     0.154 A 
ATOM     30  N   UNL d   1     -29.753  21.676  24.413  0.00  0.00    -0.283 N 
ATOM     31  C   UNL d   1     -28.473  21.990  24.696  0.00  0.00     0.351 A 
ATOM     32  O   UNL d   1     -27.839  21.625  25.670  0.00  0.00    -0.244 OA
BRANCH  29  33
ATOM     33  C   UNL d   1     -31.440  22.192  22.555  0.00  0.00     0.244 C 
BRANCH  33  34
ATOM     34  O   UNL d   1     -31.269  22.288  21.139  0.00  0.00    -0.393 OA
ATOM     35  H   UNL d   1     -30.821  21.526  20.745  0.00  0.00     0.209 HD
ENDBRANCH  33  34
ENDBRANCH  29  33
BRANCH  30  36
ATOM     36  C   UNL d   1     -30.628  20.829  25.228  0.00  0.00     0.131 C 
ATOM     37  C   UNL d   1     -31.720  21.689  25.864  0.00  0.00     0.027 C 
ENDBRANCH  30  36
ENDBRANCH   1  27
TORSDOF 9
ENDMDL
