MODEL 1
REMARK VINA RESULT:      -9.3      0.000      0.000
REMARK  7 active torsions:
REMARK  status: ('A' for Active; 'I' for Inactive)
REMARK    1  A    between atoms: C_2  and  C_3 
REMARK    2  A    between atoms: C_3  and  O_5 
REMARK    3  A    between atoms: O_5  and  C_6 
REMARK    4  A    between atoms: C_8  and  N_9 
REMARK       I    between atoms: N_9  and  C_10 
REMARK    5  A    between atoms: C_10  and  C_12 
REMARK    6  A    between atoms: C_15  and  O_17 
REMARK    7  A    between atoms: C_21  and  C_22 
ROOT
ATOM      1  C   UNL d   1     -31.015  21.958  22.768  0.00  0.00     0.141 C 
ATOM      2  C   UNL d   1     -31.945  21.914  21.680  0.00  0.00     0.107 C 
ATOM      3  N   UNL d   1     -32.683  21.878  20.817  0.00  0.00    -0.191 NA
ATOM      4  C   UNL d   1     -31.399  21.549  24.011  0.00  0.00     0.065 C 
ATOM      5  C   UNL d   1     -32.803  21.052  24.238  0.00  0.00     0.077 C 
ENDROOT
BRANCH   1   6
ATOM      6  C   UNL d   1     -29.645  22.444  22.544  0.00  0.00     0.269 C 
ATOM      7  N   UNL d   1     -28.598  21.758  23.044  0.00  0.00    -0.320 N 
ATOM      8  H   UNL d   1     -28.749  20.990  23.617  0.00  0.00     0.169 HD
ATOM      9  O   UNL d   1     -29.457  23.463  21.908  0.00  0.00    -0.266 OA
BRANCH   7  10
ATOM     10  C   UNL d   1     -27.292  22.156  22.738  0.00  0.00     0.076 A 
ATOM     11  C   UNL d   1     -26.646  23.089  23.536  0.00  0.00     0.070 A 
ATOM     12  C   UNL d   1     -25.356  23.488  23.231  0.00  0.00     0.082 A 
ATOM     13  C   UNL d   1     -24.701  22.940  22.124  0.00  0.00     0.011 A 
ATOM     14  C   UNL d   1     -25.352  21.997  21.329  0.00  0.00     0.059 A 
ATOM     15  C   UNL d   1     -26.641  21.609  21.635  0.00  0.00     0.144 A 
ATOM     16  F   UNL d   1     -27.271  20.696  20.864  0.00  0.00    -0.204 F 
BRANCH  12  17
ATOM     17  O   UNL d   1     -24.726  24.406  24.009  0.00  0.00    -0.345 OA
BRANCH  17  18
ATOM     18  C   UNL d   1     -25.121  25.771  23.852  0.00  0.00     0.124 C 
ATOM     19  C   UNL d   1     -25.707  26.287  25.168  0.00  0.00     0.040 C 
BRANCH  18  20
ATOM     20  C   UNL d   1     -23.904  26.614  23.470  0.00  0.00     0.027 C 
ATOM     21  C   UNL d   1     -22.784  26.386  24.488  0.00  0.00     0.007 C 
ENDBRANCH  18  20
ENDBRANCH  17  18
ENDBRANCH  12  17
BRANCH  13  22
ATOM     22  C   UNL d   1     -23.317  23.359  21.798  0.00  0.00    -0.023 A 
ATOM     23  C   UNL d   1     -23.041  23.963  20.572  0.00  0.00     0.012 A 
ATOM     24  C   UNL d   1     -21.750  24.351  20.274  0.00  0.00     0.001 A 
ATOM     25  C   UNL d   1     -20.733  24.141  21.187  0.00  0.00     0.000 A 
ATOM     26  C   UNL d   1     -21.002  23.541  22.404  0.00  0.00     0.001 A 
ATOM     27  C   UNL d   1     -22.290  23.155  22.716  0.00  0.00     0.012 A 
ENDBRANCH  13  22
ENDBRANCH   7  10
ENDBRANCH   1   6
BRANCH   4  28
ATOM     28  O   UNL d   1     -30.526  21.591  25.031  0.00  0.00    -0.364 OA
ATOM     29  H   UNL d   1     -30.770  22.132  25.796  0.00  0.00     0.217 HD
ENDBRANCH   4  28
TORSDOF 7
ENDMDL
