MODEL 1
REMARK VINA RESULT:     -11.4      0.000      0.000
REMARK  6 active torsions:
REMARK  status: ('A' for Active; 'I' for Inactive)
REMARK    1  A    between atoms: C_2  and  O_3 
REMARK    2  A    between atoms: C_2  and  C_4 
REMARK    3  A    between atoms: C_6  and  C_7 
REMARK    4  A    between atoms: C_12  and  N_13 
REMARK    5  A    between atoms: N_13  and  C_14 
REMARK    6  A    between atoms: C_18  and  C_19 
ROOT
ATOM      1  N   UNL d   1     -28.241  22.638  24.111  0.00  0.00    -0.354 N 
ATOM      2  H   UNL d   1     -28.272  22.796  25.068  0.00  0.00     0.166 HD
ENDROOT
BRANCH   1   3
ATOM      3  C   UNL d   1     -29.416  22.411  23.407  0.00  0.00     0.049 A 
ATOM      4  C   UNL d   1     -30.538  21.875  24.060  0.00  0.00     0.064 A 
ATOM      5  C   UNL d   1     -31.715  21.652  23.338  0.00  0.00     0.028 A 
ATOM      6  C   UNL d   1     -31.765  21.957  21.996  0.00  0.00    -0.053 A 
ATOM      7  C   UNL d   1     -30.654  22.480  21.353  0.00  0.00     0.010 A 
ATOM      8  C   UNL d   1     -29.488  22.713  22.052  0.00  0.00     0.031 A 
BRANCH   4   9
ATOM      9  C   UNL d   1     -30.477  21.551  25.494  0.00  0.00     0.178 C 
ATOM     10  O   UNL d   1     -31.370  21.911  26.237  0.00  0.00    -0.646 OA
BRANCH   9  11
ATOM     11  O   UNL d   1     -29.432  20.856  25.985  0.00  0.00    -0.773 OA
ATOM     12  H   UNL d   1     -29.498  19.892  25.966  0.00  0.00     0.167 HD
ENDBRANCH   9  11
ENDBRANCH   4   9
BRANCH   6  13
ATOM     13  C   UNL d   1     -33.035  21.715  21.220  0.00  0.00     0.018 A 
ATOM     14  C   UNL d   1     -34.302  22.427  21.699  0.00  0.00     0.010 A 
ATOM     15  C   UNL d   1     -34.144  20.920  21.910  0.00  0.00     0.010 A 
ENDBRANCH   6  13
ENDBRANCH   1   3
BRANCH   1  16
ATOM     16  C   UNL d   1     -27.013  22.636  23.442  0.00  0.00     0.051 A 
ATOM     17  C   UNL d   1     -26.041  23.581  23.751  0.00  0.00     0.044 A 
ATOM     18  C   UNL d   1     -24.831  23.537  23.054  0.00  0.00    -0.006 A 
ATOM     19  C   UNL d   1     -24.647  22.557  22.082  0.00  0.00     0.128 A 
ATOM     20  N   UNL d   1     -25.596  21.680  21.820  0.00  0.00    -0.270 NA
ATOM     21  C   UNL d   1     -26.748  21.687  22.462  0.00  0.00     0.145 A 
BRANCH  18  22
ATOM     22  C   UNL d   1     -23.759  24.521  23.344  0.00  0.00    -0.025 A 
ATOM     23  C   UNL d   1     -24.067  25.875  23.467  0.00  0.00     0.012 A 
ATOM     24  C   UNL d   1     -23.066  26.785  23.737  0.00  0.00     0.001 A 
ATOM     25  C   UNL d   1     -21.759  26.357  23.886  0.00  0.00     0.000 A 
ATOM     26  C   UNL d   1     -21.447  25.015  23.764  0.00  0.00     0.001 A 
ATOM     27  C   UNL d   1     -22.442  24.094  23.499  0.00  0.00     0.012 A 
ENDBRANCH  18  22
ENDBRANCH   1  16
TORSDOF 6
ENDMDL
