MODEL 1
REMARK VINA RESULT:      -8.2      0.000      0.000
REMARK  4 active torsions:
REMARK  status: ('A' for Active; 'I' for Inactive)
REMARK    1  A    between atoms: C_6  and  N_7 
REMARK    2  A    between atoms: N_7  and  C_8 
REMARK    3  A    between atoms: C_8  and  C_10 
REMARK    4  A    between atoms: C_14  and  C_15 
ROOT
ATOM      1  N   UNL d   1     -29.867  22.741  23.359  0.00  0.00    -0.191 NA
ATOM      2  C   UNL d   1     -28.742  22.709  23.204  0.00  0.00     0.099 C 
ATOM      3  C   UNL d   1     -27.324  22.670  23.008  0.00  0.00     0.044 A 
ATOM      4  C   UNL d   1     -26.488  23.497  23.764  0.00  0.00     0.025 A 
ATOM      5  C   UNL d   1     -25.125  23.453  23.576  0.00  0.00     0.031 A 
ATOM      6  C   UNL d   1     -24.579  22.593  22.627  0.00  0.00     0.033 A 
ATOM      7  C   UNL d   1     -25.408  21.772  21.868  0.00  0.00     0.031 A 
ATOM      8  C   UNL d   1     -26.772  21.808  22.055  0.00  0.00     0.025 A 
ENDROOT
BRANCH   6   9
ATOM      9  N   UNL d   1     -23.199  22.556  22.435  0.00  0.00    -0.346 N 
ATOM     10  H   UNL d   1     -22.684  21.804  22.766  0.00  0.00     0.167 HD
BRANCH   9  11
ATOM     11  C   UNL d   1     -22.581  23.565  21.790  0.00  0.00     0.115 C 
ATOM     12  S   UNL d   1     -23.220  24.157  20.316  0.00  0.00    -0.059 SA
BRANCH  11  13
ATOM     13  C   UNL d   1     -21.356  24.157  22.352  0.00  0.00     0.054 A 
ATOM     14  C   UNL d   1     -21.236  25.080  23.362  0.00  0.00     0.098 A 
ATOM     15  O   UNL d   1     -19.927  25.304  23.513  0.00  0.00    -0.217 OA
ATOM     16  N   UNL d   1     -19.246  24.665  22.750  0.00  0.00    -0.140 NA
ATOM     17  C   UNL d   1     -19.957  23.910  21.967  0.00  0.00     0.163 A 
BRANCH  14  18
ATOM     18  C   UNL d   1     -22.357  25.716  24.144  0.00  0.00     0.046 A 
ATOM     19  C   UNL d   1     -22.210  27.192  24.515  0.00  0.00     0.012 A 
ATOM     20  C   UNL d   1     -23.206  26.770  23.431  0.00  0.00     0.012 A 
ENDBRANCH  14  18
ENDBRANCH  11  13
ENDBRANCH   9  11
ENDBRANCH   6   9
TORSDOF 4
ENDMDL
