MODEL 1
REMARK VINA RESULT:      -9.5      0.000      0.000
REMARK  5 active torsions:
REMARK  status: ('A' for Active; 'I' for Inactive)
REMARK    1  A    between atoms: C_7  and  N_8 
REMARK    2  A    between atoms: C_10  and  C_11 
REMARK    3  A    between atoms: C_16  and  C_17 
REMARK    4  A    between atoms: C_19  and  C_20 
REMARK    5  A    between atoms: C_20  and  O_23 
ROOT
ATOM      1  N   UNL d   1     -23.844  23.709  22.128  0.00  0.00    -0.288 N 
ATOM      2  C   UNL d   1     -24.434  24.418  23.137  0.00  0.00     0.109 A 
ATOM      3  C   UNL d   1     -25.725  24.260  23.467  0.00  0.00    -0.027 A 
ATOM      4  C   UNL d   1     -26.544  23.296  22.727  0.00  0.00    -0.011 A 
ATOM      5  C   UNL d   1     -27.891  23.094  23.022  0.00  0.00     0.031 A 
ATOM      6  C   UNL d   1     -28.616  22.163  22.292  0.00  0.00     0.053 A 
ATOM      7  C   UNL d   1     -28.005  21.439  21.258  0.00  0.00     0.131 A 
ATOM      8  F   UNL d   1     -28.727  20.541  20.554  0.00  0.00    -0.205 F 
ATOM      9  C   UNL d   1     -26.686  21.633  20.956  0.00  0.00     0.061 A 
ATOM     10  C   UNL d   1     -25.936  22.560  21.682  0.00  0.00     0.046 A 
ATOM     11  C   UNL d   1     -24.519  22.801  21.396  0.00  0.00     0.263 A 
ATOM     12  O   UNL d   1     -23.958  22.189  20.504  0.00  0.00    -0.267 OA
ENDROOT
BRANCH   6  13
ATOM     13  C   UNL d   1     -30.049  21.936  22.602  0.00  0.00     0.184 A 
ATOM     14  N   UNL d   1     -30.529  21.548  23.763  0.00  0.00    -0.150 NA
ATOM     15  N   UNL d   1     -31.922  21.460  23.615  0.00  0.00    -0.256 N 
ATOM     16  C   UNL d   1     -32.195  21.810  22.345  0.00  0.00     0.158 A 
ATOM     17  C   UNL d   1     -32.890  21.066  24.641  0.00  0.00     0.181 C 
ATOM     18  N   UNL d   1     -31.067  22.087  21.745  0.00  0.00    -0.208 NA
BRANCH  16  19
ATOM     19  C   UNL d   1     -33.564  21.867  21.718  0.00  0.00     0.112 C 
ATOM     20  C   UNL d   1     -34.422  22.895  22.460  0.00  0.00     0.054 C 
ATOM     21  C   UNL d   1     -34.224  20.490  21.811  0.00  0.00     0.054 C 
BRANCH  19  22
ATOM     22  O   UNL d   1     -33.445  22.248  20.346  0.00  0.00    -0.383 OA
ATOM     23  H   UNL d   1     -33.105  23.143  20.215  0.00  0.00     0.211 HD
ENDBRANCH  19  22
ENDBRANCH  16  19
ENDBRANCH   6  13
BRANCH   3  24
ATOM     24  C   UNL d   1     -26.328  25.066  24.588  0.00  0.00     0.013 C 
ATOM     25  C   UNL d   1     -26.683  24.136  25.750  0.00  0.00     0.015 C 
ATOM     26  C   UNL d   1     -25.319  26.113  25.063  0.00  0.00     0.015 C 
ENDBRANCH   3  24
BRANCH   1  27
ATOM     27  C   UNL d   1     -22.491  23.932  21.847  0.00  0.00     0.048 A 
ATOM     28  C   UNL d   1     -21.513  23.476  22.722  0.00  0.00    -0.035 A 
ATOM     29  C   UNL d   1     -21.908  22.740  23.977  0.00  0.00     0.050 C 
ATOM     30  C   UNL d   1     -20.179  23.699  22.442  0.00  0.00     0.009 A 
ATOM     31  C   UNL d   1     -19.816  24.374  21.291  0.00  0.00     0.001 A 
ATOM     32  C   UNL d   1     -20.786  24.828  20.418  0.00  0.00     0.002 A 
ATOM     33  C   UNL d   1     -22.122  24.605  20.689  0.00  0.00     0.030 A 
ENDBRANCH   1  27
TORSDOF 5
ENDMDL
