MODEL 1
REMARK VINA RESULT:      -9.1      0.000      0.000
REMARK  7 active torsions:
REMARK  status: ('A' for Active; 'I' for Inactive)
REMARK    1  A    between atoms: C_8  and  N_9 
REMARK       I    between atoms: N_9  and  C_10 
REMARK    2  A    between atoms: C_10  and  C_12 
REMARK    3  A    between atoms: C_16  and  N_17 
REMARK    4  A    between atoms: N_21  and  C_22 
REMARK    5  A    between atoms: C_28  and  O_29 
REMARK    6  A    between atoms: O_29  and  C_30 
REMARK    7  A    between atoms: C_30  and  C_32 
ROOT
ATOM      1  C   UNL d   1     -25.652  22.399  22.388  0.00  0.00     0.068 A 
ATOM      2  C   UNL d   1     -26.352  21.620  21.458  0.00  0.00     0.064 A 
ATOM      3  C   UNL d   1     -27.718  21.495  21.558  0.00  0.00     0.146 A 
ATOM      4  F   UNL d   1     -28.393  20.743  20.660  0.00  0.00    -0.204 F 
ATOM      5  C   UNL d   1     -28.409  22.142  22.582  0.00  0.00     0.104 A 
ATOM      6  C   UNL d   1     -27.724  22.917  23.508  0.00  0.00     0.073 A 
ATOM      7  C   UNL d   1     -26.348  23.044  23.421  0.00  0.00     0.087 A 
ENDROOT
BRANCH   1   8
ATOM      8  C   UNL d   1     -24.189  22.536  22.284  0.00  0.00     0.259 C 
ATOM      9  N   UNL d   1     -23.628  23.761  22.263  0.00  0.00    -0.320 N 
ATOM     10  H   UNL d   1     -24.176  24.549  22.399  0.00  0.00     0.169 HD
ATOM     11  O   UNL d   1     -23.489  21.545  22.217  0.00  0.00    -0.267 OA
BRANCH   9  12
ATOM     12  C   UNL d   1     -22.251  23.896  22.046  0.00  0.00     0.080 A 
ATOM     13  C   UNL d   1     -21.779  24.294  20.803  0.00  0.00    -0.032 A 
ATOM     14  C   UNL d   1     -22.748  24.582  19.685  0.00  0.00     0.050 C 
ATOM     15  C   UNL d   1     -20.420  24.432  20.593  0.00  0.00     0.009 A 
ATOM     16  C   UNL d   1     -19.530  24.163  21.615  0.00  0.00     0.004 A 
ATOM     17  C   UNL d   1     -19.995  23.766  22.856  0.00  0.00     0.045 A 
ATOM     18  C   UNL d   1     -21.353  23.631  23.075  0.00  0.00     0.143 A 
ATOM     19  F   UNL d   1     -21.807  23.244  24.286  0.00  0.00    -0.204 F 
ENDBRANCH   9  12
ENDBRANCH   1   8
BRANCH   7  20
ATOM     20  O   UNL d   1     -25.675  23.797  24.328  0.00  0.00    -0.341 OA
BRANCH  20  21
ATOM     21  C   UNL d   1     -25.854  25.212  24.256  0.00  0.00     0.158 C 
ATOM     22  C   UNL d   1     -26.599  25.697  25.502  0.00  0.00     0.045 C 
BRANCH  21  23
ATOM     23  C   UNL d   1     -24.508  25.886  24.182  0.00  0.00    -0.029 A 
ATOM     24  C   UNL d   1     -24.146  26.583  23.045  0.00  0.00     0.010 A 
ATOM     25  C   UNL d   1     -22.911  27.200  22.977  0.00  0.00     0.001 A 
ATOM     26  C   UNL d   1     -22.039  27.121  24.046  0.00  0.00     0.000 A 
ATOM     27  C   UNL d   1     -22.401  26.425  25.184  0.00  0.00     0.001 A 
ATOM     28  C   UNL d   1     -23.638  25.811  25.254  0.00  0.00     0.010 A 
ENDBRANCH  21  23
ENDBRANCH  20  21
ENDBRANCH   7  20
BRANCH   5  29
ATOM     29  N   UNL d   1     -29.797  22.012  22.677  0.00  0.00    -0.178 N 
ATOM     30  C   UNL d   1     -30.690  22.233  21.689  0.00  0.00     0.351 A 
ATOM     31  N   UNL d   1     -31.917  21.990  22.194  0.00  0.00    -0.280 N 
ATOM     32  O   UNL d   1     -30.435  22.582  20.552  0.00  0.00    -0.244 OA
ATOM     33  C   UNL d   1     -31.778  21.626  23.511  0.00  0.00     0.127 A 
ATOM     34  N   UNL d   1     -30.521  21.634  23.816  0.00  0.00    -0.149 NA
ATOM     35  C   UNL d   1     -32.906  21.274  24.447  0.00  0.00     0.093 C 
BRANCH  31  36
ATOM     36  C   UNL d   1     -33.182  22.105  21.464  0.00  0.00     0.088 C 
ATOM     37  C   UNL d   1     -33.746  20.708  21.199  0.00  0.00     0.032 C 
ATOM     38  C   UNL d   1     -34.181  22.910  22.296  0.00  0.00     0.032 C 
ENDBRANCH  31  36
ENDBRANCH   5  29
TORSDOF 7
ENDMDL
