MODEL 1
REMARK VINA RESULT:     -10.6      0.000      0.000
REMARK  7 active torsions:
REMARK  status: ('A' for Active; 'I' for Inactive)
REMARK    1  A    between atoms: C_2  and  C_3 
REMARK    2  A    between atoms: C_5  and  N_6 
REMARK    3  A    between atoms: N_6  and  N_7 
REMARK    4  A    between atoms: C_8  and  C_9 
REMARK    5  A    between atoms: C_14  and  C_15 
REMARK    6  A    between atoms: C_15  and  O_17 
REMARK    7  A    between atoms: C_19  and  C_20 
ROOT
ATOM      1  C   UNL d   1     -24.858  22.883  21.897  0.00  0.00     0.015 A 
ATOM      2  S   UNL d   1     -26.272  21.832  21.929  0.00  0.00    -0.053 SA
ATOM      3  C   UNL d   1     -26.723  22.488  23.501  0.00  0.00     0.188 A 
ATOM      4  N   UNL d   1     -25.847  23.373  23.865  0.00  0.00    -0.221 NA
ATOM      5  C   UNL d   1     -24.842  23.604  23.033  0.00  0.00     0.085 A 
ENDROOT
BRANCH   3   6
ATOM      6  N   UNL d   1     -27.835  22.113  24.235  0.00  0.00    -0.255 N 
ATOM      7  H   UNL d   1     -27.798  22.109  25.205  0.00  0.00     0.191 HD
BRANCH   6   8
ATOM      8  N   UNL d   1     -29.015  21.738  23.579  0.00  0.00    -0.184 NA
ATOM      9  C   UNL d   1     -30.170  21.993  24.120  0.00  0.00     0.151 C 
BRANCH   9  10
ATOM     10  C   UNL d   1     -31.408  21.701  23.382  0.00  0.00    -0.000 A 
ATOM     11  C   UNL d   1     -32.407  20.892  23.963  0.00  0.00     0.049 A 
ATOM     12  C   UNL d   1     -33.579  20.629  23.251  0.00  0.00     0.019 A 
ATOM     13  C   UNL d   1     -33.750  21.155  21.989  0.00  0.00     0.001 A 
ATOM     14  C   UNL d   1     -32.767  21.946  21.416  0.00  0.00     0.001 A 
ATOM     15  C   UNL d   1     -31.601  22.219  22.100  0.00  0.00     0.014 A 
BRANCH  11  16
ATOM     16  C   UNL d   1     -32.218  20.333  25.313  0.00  0.00     0.177 C 
ATOM     17  O   UNL d   1     -32.111  19.131  25.463  0.00  0.00    -0.646 OA
BRANCH  16  18
ATOM     18  O   UNL d   1     -32.164  21.153  26.380  0.00  0.00    -0.773 OA
ATOM     19  H   UNL d   1     -31.463  21.820  26.388  0.00  0.00     0.167 HD
ENDBRANCH  16  18
ENDBRANCH  11  16
ENDBRANCH   9  10
ENDBRANCH   6   8
ENDBRANCH   3   6
BRANCH   1  20
ATOM     20  C   UNL d   1     -23.837  22.956  20.791  0.00  0.00     0.044 C 
ATOM     21  C   UNL d   1     -24.460  22.447  19.489  0.00  0.00     0.010 C 
ENDBRANCH   1  20
BRANCH   5  22
ATOM     22  C   UNL d   1     -23.776  24.590  23.332  0.00  0.00     0.015 A 
ATOM     23  C   UNL d   1     -22.489  24.156  23.646  0.00  0.00     0.046 A 
ATOM     24  C   UNL d   1     -21.500  25.080  23.923  0.00  0.00     0.025 A 
ATOM     25 CL   UNL d   1     -22.130  22.458  23.690  0.00  0.00    -0.083 Cl
ATOM     26  C   UNL d   1     -21.784  26.433  23.888  0.00  0.00     0.002 A 
ATOM     27  C   UNL d   1     -23.061  26.869  23.577  0.00  0.00     0.001 A 
ATOM     28  C   UNL d   1     -24.056  25.956  23.293  0.00  0.00     0.015 A 
ENDBRANCH   5  22
TORSDOF 7
ENDMDL
