MODEL 1
REMARK VINA RESULT:     -12.1      0.000      0.000
REMARK  6 active torsions:
REMARK  status: ('A' for Active; 'I' for Inactive)
REMARK    1  A    between atoms: C_4  and  C_5 
REMARK    2  A    between atoms: C_5  and  O_7 
REMARK    3  A    between atoms: C_10  and  C_11 
REMARK    4  A    between atoms: C_14  and  C_15 
REMARK    5  A    between atoms: C_18  and  N_19 
REMARK       I    between atoms: N_19  and  C_20 
REMARK    6  A    between atoms: C_20  and  C_22 
ROOT
ATOM      1  C   UNL d   1     -26.854  23.150  23.256  0.00  0.00     0.010 A 
ATOM      2  C   UNL d   1     -26.446  24.284  23.964  0.00  0.00     0.016 A 
ATOM      3  C   UNL d   1     -25.137  24.706  23.892  0.00  0.00     0.013 A 
ATOM      4  C   UNL d   1     -24.219  24.003  23.112  0.00  0.00    -0.026 A 
ATOM      5  C   UNL d   1     -24.627  22.874  22.400  0.00  0.00     0.013 A 
ATOM      6  C   UNL d   1     -25.933  22.447  22.475  0.00  0.00     0.016 A 
ENDROOT
BRANCH   4   7
ATOM      7  C   UNL d   1     -22.811  24.459  23.035  0.00  0.00    -0.026 A 
ATOM      8  C   UNL d   1     -22.470  25.747  23.445  0.00  0.00     0.014 A 
ATOM      9  C   UNL d   1     -21.159  26.167  23.377  0.00  0.00     0.030 A 
ATOM     10  C   UNL d   1     -20.179  25.311  22.888  0.00  0.00     0.034 A 
ATOM     11  C   UNL d   1     -20.515  24.026  22.479  0.00  0.00     0.030 A 
ATOM     12  C   UNL d   1     -21.824  23.600  22.550  0.00  0.00     0.014 A 
BRANCH  10  13
ATOM     13  N   UNL d   1     -18.851  25.742  22.815  0.00  0.00    -0.325 N 
ATOM     14  C   UNL d   1     -18.097  25.795  23.930  0.00  0.00     0.255 C 
ATOM     15  O   UNL d   1     -18.542  25.390  24.983  0.00  0.00    -0.271 OA
ATOM     16  H   UNL d   1     -18.474  26.008  21.961  0.00  0.00     0.169 HD
BRANCH  14  17
ATOM     17  C   UNL d   1     -16.700  26.358  23.870  0.00  0.00     0.311 C 
ATOM     18  N   UNL d   1     -15.755  25.313  23.434  0.00  0.00     0.097 N 
ATOM     19  C   UNL d   1     -15.134  25.740  22.163  0.00  0.00     0.271 C 
ATOM     20  H   UNL d   1     -15.055  25.142  24.140  0.00  0.00     0.317 HD
ATOM     21  C   UNL d   1     -15.250  27.285  22.165  0.00  0.00     0.033 C 
ATOM     22  C   UNL d   1     -16.637  27.495  22.826  0.00  0.00     0.047 C 
ENDBRANCH  14  17
ENDBRANCH  10  13
ENDBRANCH   4   7
BRANCH   1  23
ATOM     23  C   UNL d   1     -28.258  22.698  23.332  0.00  0.00     0.139 A 
ATOM     24  N   UNL d   1     -28.812  22.125  24.375  0.00  0.00    -0.227 NA
ATOM     25  C   UNL d   1     -30.099  21.842  24.107  0.00  0.00     0.102 A 
ATOM     26  C   UNL d   1     -31.135  21.238  24.856  0.00  0.00     0.069 A 
ATOM     27  C   UNL d   1     -30.360  22.273  22.795  0.00  0.00     0.064 A 
ATOM     28  C   UNL d   1     -32.394  21.081  24.279  0.00  0.00     0.027 A 
ATOM     29  C   UNL d   1     -32.629  21.513  22.987  0.00  0.00    -0.059 A 
ATOM     30  C   UNL d   1     -33.997  21.337  22.379  0.00  0.00     0.048 C 
ATOM     31  C   UNL d   1     -31.622  22.104  22.247  0.00  0.00     0.038 A 
ATOM     32  N   UNL d   1     -29.179  22.817  22.328  0.00  0.00    -0.338 N 
ATOM     33  H   UNL d   1     -29.030  23.208  21.452  0.00  0.00     0.167 HD
BRANCH  26  34
ATOM     34  C   UNL d   1     -30.886  20.778  26.232  0.00  0.00     0.178 C 
ATOM     35  O   UNL d   1     -31.350  19.721  26.612  0.00  0.00    -0.646 OA
BRANCH  34  36
ATOM     36  O   UNL d   1     -30.143  21.529  27.069  0.00  0.00    -0.773 OA
ATOM     37  H   UNL d   1     -30.215  22.490  26.978  0.00  0.00     0.167 HD
ENDBRANCH  34  36
ENDBRANCH  26  34
ENDBRANCH   1  23
TORSDOF 6
ENDMDL
