MODEL 1
REMARK VINA RESULT:      -8.4      0.000      0.000
REMARK  5 active torsions:
REMARK  status: ('A' for Active; 'I' for Inactive)
REMARK    1  A    between atoms: C_2  and  O_3 
REMARK    2  A    between atoms: O_3  and  C_4 
REMARK    3  A    between atoms: C_4  and  C_6 
REMARK    4  A    between atoms: C_8  and  N_9 
REMARK    5  A    between atoms: N_9  and  C_10 
ROOT
ATOM      1  C   UNL d   1     -27.231  22.296  22.850  0.00  0.00     0.107 A 
ATOM      2  S   UNL d   1     -25.863  23.071  23.646  0.00  0.00    -0.044 SA
ATOM      3  C   UNL d   1     -24.833  22.595  22.367  0.00  0.00     0.172 A 
ATOM      4  N   UNL d   1     -25.502  21.935  21.465  0.00  0.00    -0.228 NA
ATOM      5  C   UNL d   1     -26.778  21.751  21.679  0.00  0.00     0.057 A 
ATOM      6  C   UNL d   1     -27.673  21.008  20.721  0.00  0.00     0.072 C 
ENDROOT
BRANCH   3   7
ATOM      7  N   UNL d   1     -23.485  22.876  22.298  0.00  0.00    -0.335 N 
ATOM      8  H   UNL d   1     -22.895  22.301  21.786  0.00  0.00     0.168 HD
BRANCH   7   9
ATOM      9  C   UNL d   1     -22.968  23.989  22.965  0.00  0.00     0.037 A 
ATOM     10  C   UNL d   1     -23.525  25.245  22.759  0.00  0.00     0.072 A 
ATOM     11  C   UNL d   1     -23.013  26.345  23.424  0.00  0.00     0.124 A 
ATOM     12  C   UNL d   1     -21.941  26.195  24.287  0.00  0.00    -0.023 A 
ATOM     13  F   UNL d   1     -23.558  27.566  23.229  0.00  0.00    -0.205 F 
ATOM     14  C   UNL d   1     -21.382  24.947  24.490  0.00  0.00     0.012 A 
ATOM     15  C   UNL d   1     -21.380  27.396  25.006  0.00  0.00     0.051 C 
ATOM     16  C   UNL d   1     -21.892  23.845  23.832  0.00  0.00     0.030 A 
ENDBRANCH   7   9
ENDBRANCH   3   7
BRANCH   1  17
ATOM     17  C   UNL d   1     -28.562  22.248  23.334  0.00  0.00     0.302 C 
ATOM     18  O   UNL d   1     -28.842  21.531  24.276  0.00  0.00    -0.259 OA
BRANCH  17  19
ATOM     19  O   UNL d   1     -29.520  22.998  22.748  0.00  0.00    -0.317 OA
BRANCH  19  20
ATOM     20  C   UNL d   1     -30.769  22.359  22.481  0.00  0.00     0.174 C 
ATOM     21  C   UNL d   1     -30.977  22.256  20.968  0.00  0.00     0.034 C 
ENDBRANCH  19  20
ENDBRANCH  17  19
ENDBRANCH   1  17
TORSDOF 5
ENDMDL
