MODEL 1
REMARK VINA RESULT:     -10.4      0.000      0.000
REMARK  7 active torsions:
REMARK  status: ('A' for Active; 'I' for Inactive)
REMARK    1  A    between atoms: C_2  and  O_4 
REMARK    2  A    between atoms: O_4  and  C_5 
REMARK    3  A    between atoms: C_5  and  C_7 
REMARK    4  A    between atoms: C_12  and  C_13 
REMARK    5  A    between atoms: N_14  and  N_15 
REMARK    6  A    between atoms: N_15  and  C_16 
REMARK    7  A    between atoms: C_18  and  C_19 
ROOT
ATOM      1  C   UNL d   1     -27.642  21.856  22.316  0.00  0.00     0.151 C 
ATOM      2  N   UNL d   1     -26.930  21.241  21.419  0.00  0.00    -0.184 NA
ENDROOT
BRANCH   2   3
ATOM      3  N   UNL d   1     -25.546  21.111  21.592  0.00  0.00    -0.255 N 
ATOM      4  H   UNL d   1     -25.173  20.273  21.906  0.00  0.00     0.191 HD
BRANCH   3   5
ATOM      5  C   UNL d   1     -24.711  22.181  21.317  0.00  0.00     0.187 A 
ATOM      6  S   UNL d   1     -24.135  22.638  19.717  0.00  0.00    -0.060 SA
ATOM      7  C   UNL d   1     -23.245  23.986  20.421  0.00  0.00     0.086 A 
ATOM      8  C   UNL d   1     -23.445  23.973  21.752  0.00  0.00     0.078 A 
ATOM      9  N   UNL d   1     -24.231  23.004  22.198  0.00  0.00    -0.222 NA
BRANCH   8  10
ATOM     10  C   UNL d   1     -22.833  24.979  22.654  0.00  0.00     0.015 A 
ATOM     11  C   UNL d   1     -21.486  24.879  23.000  0.00  0.00     0.046 A 
ATOM     12  C   UNL d   1     -20.921  25.819  23.840  0.00  0.00     0.025 A 
ATOM     13 CL   UNL d   1     -20.520  23.579  22.376  0.00  0.00    -0.083 Cl
ATOM     14  C   UNL d   1     -21.689  26.857  24.338  0.00  0.00     0.002 A 
ATOM     15  C   UNL d   1     -23.026  26.959  23.997  0.00  0.00     0.001 A 
ATOM     16  C   UNL d   1     -23.601  26.026  23.158  0.00  0.00     0.015 A 
ENDBRANCH   8  10
ENDBRANCH   3   5
ENDBRANCH   2   3
BRANCH   1  17
ATOM     17  C   UNL d   1     -29.096  21.990  22.136  0.00  0.00    -0.001 A 
ATOM     18  C   UNL d   1     -29.960  21.921  23.249  0.00  0.00     0.051 A 
ATOM     19  C   UNL d   1     -31.337  22.058  23.061  0.00  0.00     0.018 A 
ATOM     20  C   UNL d   1     -31.843  22.247  21.793  0.00  0.00     0.001 A 
ATOM     21  C   UNL d   1     -30.995  22.310  20.698  0.00  0.00     0.001 A 
ATOM     22  C   UNL d   1     -29.632  22.183  20.861  0.00  0.00     0.014 A 
BRANCH  18  23
ATOM     23  C   UNL d   1     -29.413  21.712  24.601  0.00  0.00     0.294 C 
ATOM     24  O   UNL d   1     -30.161  21.476  25.529  0.00  0.00    -0.259 OA
BRANCH  23  25
ATOM     25  O   UNL d   1     -28.084  21.784  24.809  0.00  0.00    -0.313 OA
BRANCH  25  26
ATOM     26  C   UNL d   1     -27.624  22.724  25.815  0.00  0.00     0.124 C 
ATOM     27  C   UNL d   1     -26.860  21.970  26.906  0.00  0.00     0.040 C 
ATOM     28  C   UNL d   1     -26.700  23.756  25.166  0.00  0.00     0.040 C 
ENDBRANCH  25  26
ENDBRANCH  23  25
ENDBRANCH  18  23
ENDBRANCH   1  17
TORSDOF 7
ENDMDL
