MODEL 1
REMARK VINA RESULT:      -9.5      0.000      0.000
REMARK  3 active torsions:
REMARK  status: ('A' for Active; 'I' for Inactive)
REMARK    1  A    between atoms: C_2  and  C_5 
REMARK    2  A    between atoms: C_8  and  N_9 
REMARK    3  A    between atoms: N_9  and  C_10 
ROOT
ATOM      1  N   UNL d   1     -29.676  22.760  23.717  0.00  0.00    -0.341 N 
ATOM      2  H   UNL d   1     -30.130  23.611  23.611  0.00  0.00     0.167 HD
ENDROOT
BRANCH   1   3
ATOM      3  C   UNL d   1     -28.478  22.518  23.042  0.00  0.00     0.033 A 
ATOM      4  C   UNL d   1     -28.485  21.827  21.836  0.00  0.00     0.030 A 
ATOM      5  C   UNL d   1     -27.298  21.591  21.171  0.00  0.00     0.018 A 
ATOM      6  C   UNL d   1     -26.103  22.043  21.702  0.00  0.00     0.048 A 
ATOM      7  C   UNL d   1     -26.092  22.731  22.901  0.00  0.00     0.018 A 
ATOM      8  C   UNL d   1     -27.277  22.975  23.569  0.00  0.00     0.030 A 
BRANCH   6   9
ATOM      9  C   UNL d   1     -24.811  21.782  20.973  0.00  0.00     0.417 C 
ATOM     10  F   UNL d   1     -24.383  20.476  21.233  0.00  0.00    -0.166 F 
ATOM     11  F   UNL d   1     -25.012  21.940  19.597  0.00  0.00    -0.166 F 
ATOM     12  F   UNL d   1     -23.837  22.687  21.409  0.00  0.00    -0.166 F 
ENDBRANCH   6   9
ENDBRANCH   1   3
BRANCH   1  13
ATOM     13  C   UNL d   1     -30.220  21.779  24.543  0.00  0.00     0.130 A 
ATOM     14  C   UNL d   1     -31.462  21.250  24.449  0.00  0.00     0.014 A 
ATOM     15  C   UNL d   1     -31.607  20.298  25.471  0.00  0.00     0.064 A 
ATOM     16  C   UNL d   1     -32.546  21.578  23.453  0.00  0.00     0.044 C 
ATOM     17  N   UNL d   1     -30.497  20.251  26.150  0.00  0.00    -0.177 NA
ATOM     18  C   UNL d   1     -32.868  19.496  25.689  0.00  0.00     0.062 C 
ATOM     19  N   UNL d   1     -29.599  21.173  25.593  0.00  0.00    -0.262 N 
ATOM     20  H   UNL d   1     -28.696  21.348  25.900  0.00  0.00     0.191 HD
ATOM     21  C   UNL d   1     -34.010  20.184  24.932  0.00  0.00     0.006 C 
ATOM     22  C   UNL d   1     -33.586  20.451  23.486  0.00  0.00     0.005 C 
ENDBRANCH   1  13
TORSDOF 3
ENDMDL
