MODEL 1
REMARK VINA RESULT:     -10.6      0.000      0.000
REMARK  6 active torsions:
REMARK  status: ('A' for Active; 'I' for Inactive)
REMARK    1  A    between atoms: C_2  and  O_3 
REMARK    2  A    between atoms: O_3  and  C_4 
REMARK    3  A    between atoms: C_4  and  C_6 
REMARK    4  A    between atoms: C_8  and  N_9 
REMARK    5  A    between atoms: N_9  and  C_10 
REMARK    6  A    between atoms: C_21  and  C_22 
ROOT
ATOM      1  C   UNL d   1     -25.999  22.185  22.348  0.00  0.00     0.113 A 
ATOM      2  S   UNL d   1     -27.600  21.538  22.699  0.00  0.00    -0.044 SA
ATOM      3  C   UNL d   1     -27.713  22.525  24.088  0.00  0.00     0.172 A 
ATOM      4  N   UNL d   1     -26.644  23.249  24.231  0.00  0.00    -0.222 NA
ATOM      5  C   UNL d   1     -25.692  23.103  23.333  0.00  0.00     0.093 A 
ENDROOT
BRANCH   3   6
ATOM      6  N   UNL d   1     -28.798  22.553  24.941  0.00  0.00    -0.335 N 
ATOM      7  H   UNL d   1     -28.711  22.948  25.823  0.00  0.00     0.168 HD
BRANCH   6   8
ATOM      8  C   UNL d   1     -30.021  22.014  24.533  0.00  0.00     0.035 A 
ATOM      9  C   UNL d   1     -30.539  22.352  23.303  0.00  0.00     0.041 A 
ATOM     10  C   UNL d   1     -31.769  21.808  22.898  0.00  0.00    -0.024 A 
ATOM     11  C   UNL d   1     -32.457  20.920  23.762  0.00  0.00    -0.026 A 
ATOM     12  C   UNL d   1     -32.330  22.129  21.649  0.00  0.00     0.012 A 
ATOM     13  C   UNL d   1     -31.896  20.592  25.008  0.00  0.00     0.014 A 
ATOM     14  C   UNL d   1     -33.687  20.378  23.353  0.00  0.00     0.012 A 
ATOM     15  C   UNL d   1     -30.707  21.136  25.381  0.00  0.00     0.030 A 
ATOM     16  C   UNL d   1     -34.200  20.710  22.137  0.00  0.00     0.001 A 
ATOM     17  C   UNL d   1     -33.523  21.583  21.287  0.00  0.00     0.001 A 
ENDBRANCH   6   8
ENDBRANCH   3   6
BRANCH   1  18
ATOM     18  C   UNL d   1     -25.175  21.827  21.256  0.00  0.00     0.302 C 
ATOM     19  O   UNL d   1     -24.469  20.837  21.324  0.00  0.00    -0.259 OA
BRANCH  18  20
ATOM     20  O   UNL d   1     -25.171  22.584  20.137  0.00  0.00    -0.317 OA
BRANCH  20  21
ATOM     21  C   UNL d   1     -23.943  22.660  19.410  0.00  0.00     0.174 C 
ATOM     22  C   UNL d   1     -23.098  23.813  19.957  0.00  0.00     0.034 C 
ENDBRANCH  20  21
ENDBRANCH  18  20
ENDBRANCH   1  18
BRANCH   5  23
ATOM     23  C   UNL d   1     -24.418  23.857  23.371  0.00  0.00    -0.006 A 
ATOM     24  C   UNL d   1     -24.422  25.247  23.252  0.00  0.00     0.014 A 
ATOM     25  C   UNL d   1     -23.232  25.943  23.289  0.00  0.00     0.001 A 
ATOM     26  C   UNL d   1     -22.035  25.266  23.444  0.00  0.00     0.000 A 
ATOM     27  C   UNL d   1     -22.025  23.886  23.561  0.00  0.00     0.001 A 
ATOM     28  C   UNL d   1     -23.209  23.180  23.532  0.00  0.00     0.014 A 
ENDBRANCH   5  23
TORSDOF 6
ENDMDL
