MODEL 1
REMARK VINA RESULT:     -12.3      0.000      0.000
REMARK  3 active torsions:
REMARK  status: ('A' for Active; 'I' for Inactive)
REMARK    1  A    between atoms: C_3  and  C_4 
REMARK    2  A    between atoms: C_7  and  C_8 
REMARK    3  A    between atoms: C_25  and  C_26 
ROOT
ATOM      1  C   UNL d   1     -29.779  22.980  21.451  0.00  0.00     0.052 C 
ATOM      2  C   UNL d   1     -30.061  22.199  22.709  0.00  0.00    -0.017 A 
ATOM      3  C   UNL d   1     -29.017  21.863  23.581  0.00  0.00     0.074 A 
ATOM      4  N   UNL d   1     -29.218  21.179  24.689  0.00  0.00    -0.247 NA
ATOM      5  C   UNL d   1     -30.431  20.767  25.064  0.00  0.00     0.069 A 
ATOM      6  C   UNL d   1     -30.616  20.042  26.255  0.00  0.00     0.035 A 
ATOM      7  C   UNL d   1     -31.863  19.631  26.610  0.00  0.00     0.044 A 
ATOM      8  C   UNL d   1     -32.969  19.916  25.809  0.00  0.00     0.117 A 
ATOM      9  F   UNL d   1     -34.195  19.493  26.188  0.00  0.00    -0.206 F 
ATOM     10  C   UNL d   1     -32.827  20.617  24.645  0.00  0.00     0.057 A 
ATOM     11  C   UNL d   1     -31.557  21.054  24.254  0.00  0.00     0.010 A 
ATOM     12  C   UNL d   1     -31.357  21.809  23.016  0.00  0.00     0.034 A 
ENDROOT
BRANCH   3  13
ATOM     13  C   UNL d   1     -27.638  22.286  23.242  0.00  0.00    -0.007 A 
ATOM     14  C   UNL d   1     -27.050  23.357  23.917  0.00  0.00     0.014 A 
ATOM     15  C   UNL d   1     -25.767  23.747  23.606  0.00  0.00     0.013 A 
ATOM     16  C   UNL d   1     -25.058  23.078  22.609  0.00  0.00    -0.023 A 
ATOM     17  C   UNL d   1     -25.644  22.007  21.934  0.00  0.00     0.013 A 
ATOM     18  C   UNL d   1     -26.926  21.613  22.248  0.00  0.00     0.014 A 
BRANCH  16  19
ATOM     19  C   UNL d   1     -23.678  23.501  22.270  0.00  0.00     0.013 A 
ATOM     20  C   UNL d   1     -23.353  23.847  20.957  0.00  0.00     0.127 A 
ATOM     21  C   UNL d   1     -22.063  24.235  20.647  0.00  0.00     0.043 A 
ATOM     22  F   UNL d   1     -24.296  23.796  19.990  0.00  0.00    -0.205 F 
ATOM     23  C   UNL d   1     -21.100  24.293  21.637  0.00  0.00     0.003 A 
ATOM     24  C   UNL d   1     -21.416  23.951  22.940  0.00  0.00     0.001 A 
ATOM     25  C   UNL d   1     -22.698  23.556  23.260  0.00  0.00     0.015 A 
ENDBRANCH  16  19
ENDBRANCH   3  13
BRANCH  12  26
ATOM     26  C   UNL d   1     -32.490  22.141  22.127  0.00  0.00     0.180 A 
ATOM     27  N   UNL d   1     -33.603  22.840  22.457  0.00  0.00    -0.239 N 
ATOM     28  N   UNL d   1     -34.335  22.908  21.396  0.00  0.00    -0.046 NA
ATOM     29  H   UNL d   1     -33.810  23.221  23.324  0.00  0.00     0.192 HD
ATOM     30  N   UNL d   1     -33.744  22.286  20.437  0.00  0.00    -0.023 NA
ATOM     31  N   UNL d   1     -32.621  21.811  20.855  0.00  0.00    -0.108 NA
ENDBRANCH  12  26
TORSDOF 3
ENDMDL
