MODEL 1
REMARK VINA RESULT:     -11.4      0.000      0.000
REMARK  5 active torsions:
REMARK  status: ('A' for Active; 'I' for Inactive)
REMARK    1  A    between atoms: C_4  and  C_5 
REMARK    2  A    between atoms: C_5  and  O_7 
REMARK    3  A    between atoms: C_10  and  C_11 
REMARK    4  A    between atoms: C_14  and  C_15 
REMARK    5  A    between atoms: C_19  and  O_20 
ROOT
ATOM      1  C   UNL d   1     -34.239  20.094  25.692  0.00  0.00     0.048 C 
ATOM      2  C   UNL d   1     -33.168  20.655  24.791  0.00  0.00    -0.059 A 
ATOM      3  C   UNL d   1     -33.500  21.083  23.519  0.00  0.00     0.027 A 
ATOM      4  C   UNL d   1     -32.523  21.608  22.676  0.00  0.00     0.069 A 
ATOM      5  C   UNL d   1     -31.187  21.692  23.128  0.00  0.00     0.102 A 
ATOM      6  N   UNL d   1     -30.049  22.133  22.567  0.00  0.00    -0.227 NA
ATOM      7  C   UNL d   1     -29.053  21.995  23.413  0.00  0.00     0.139 A 
ATOM      8  N   UNL d   1     -29.513  21.450  24.579  0.00  0.00    -0.338 N 
ATOM      9  H   UNL d   1     -28.985  21.244  25.367  0.00  0.00     0.167 HD
ATOM     10  C   UNL d   1     -30.871  21.246  24.424  0.00  0.00     0.064 A 
ATOM     11  C   UNL d   1     -31.866  20.733  25.244  0.00  0.00     0.038 A 
ENDROOT
BRANCH   7  12
ATOM     12  C   UNL d   1     -27.650  22.373  23.144  0.00  0.00     0.010 A 
ATOM     13  C   UNL d   1     -27.023  23.338  23.936  0.00  0.00     0.016 A 
ATOM     14  C   UNL d   1     -25.716  23.690  23.684  0.00  0.00     0.013 A 
ATOM     15  C   UNL d   1     -25.018  23.083  22.640  0.00  0.00    -0.026 A 
ATOM     16  C   UNL d   1     -25.645  22.119  21.848  0.00  0.00     0.013 A 
ATOM     17  C   UNL d   1     -26.949  21.762  22.101  0.00  0.00     0.016 A 
BRANCH  15  18
ATOM     18  C   UNL d   1     -23.610  23.462  22.370  0.00  0.00    -0.023 A 
ATOM     19  C   UNL d   1     -23.269  24.066  21.162  0.00  0.00     0.048 A 
ATOM     20  C   UNL d   1     -21.952  24.423  20.917  0.00  0.00     0.066 A 
ATOM     21  C   UNL d   1     -20.976  24.167  21.871  0.00  0.00     0.036 A 
ATOM     22  C   UNL d   1     -21.314  23.563  23.068  0.00  0.00     0.004 A 
ATOM     23  C   UNL d   1     -22.623  23.210  23.322  0.00  0.00     0.012 A 
BRANCH  20  24
ATOM     24  O   UNL d   1     -21.617  25.017  19.743  0.00  0.00    -0.361 OA
ATOM     25  H   UNL d   1     -22.330  25.027  19.089  0.00  0.00     0.217 HD
ENDBRANCH  20  24
ENDBRANCH  15  18
ENDBRANCH   7  12
BRANCH   4  26
ATOM     26  C   UNL d   1     -32.878  22.067  21.323  0.00  0.00     0.178 C 
ATOM     27  O   UNL d   1     -34.016  22.413  21.077  0.00  0.00    -0.646 OA
BRANCH  26  28
ATOM     28  O   UNL d   1     -31.940  22.102  20.356  0.00  0.00    -0.773 OA
ATOM     29  H   UNL d   1     -32.103  21.568  19.566  0.00  0.00     0.167 HD
ENDBRANCH  26  28
ENDBRANCH   4  26
TORSDOF 5
ENDMDL
