MODEL 1
REMARK VINA RESULT:     -10.4      0.000      0.000
REMARK  6 active torsions:
REMARK  status: ('A' for Active; 'I' for Inactive)
REMARK    1  A    between atoms: O_2  and  C_3 
REMARK    2  A    between atoms: C_8  and  C_9 
REMARK    3  A    between atoms: C_12  and  N_13 
REMARK       I    between atoms: N_13  and  C_14 
REMARK    4  A    between atoms: C_14  and  C_16 
REMARK    5  A    between atoms: C_20  and  C_21 
REMARK    6  A    between atoms: C_21  and  O_23 
ROOT
ATOM      1  C   UNL d   1     -28.141  22.358  22.754  0.00  0.00    -0.001 A 
ATOM      2  C   UNL d   1     -27.530  23.107  23.760  0.00  0.00     0.016 A 
ATOM      3  C   UNL d   1     -26.161  23.266  23.763  0.00  0.00     0.030 A 
ATOM      4  C   UNL d   1     -25.389  22.690  22.761  0.00  0.00     0.036 A 
ATOM      5  C   UNL d   1     -25.994  21.943  21.758  0.00  0.00     0.054 A 
ATOM      6  C   UNL d   1     -27.364  21.777  21.751  0.00  0.00     0.047 A 
ATOM      7 CL   UNL d   1     -28.121  20.845  20.497  0.00  0.00    -0.083 Cl
ENDROOT
BRANCH   4   8
ATOM      8  N   UNL d   1     -24.002  22.858  22.766  0.00  0.00    -0.323 N 
ATOM      9  C   UNL d   1     -23.473  24.097  22.766  0.00  0.00     0.257 C 
ATOM     10  O   UNL d   1     -24.199  25.069  22.847  0.00  0.00    -0.267 OA
ATOM     11  H   UNL d   1     -23.420  22.082  22.769  0.00  0.00     0.169 HD
BRANCH   9  12
ATOM     12  C   UNL d   1     -22.011  24.276  22.669  0.00  0.00     0.056 A 
ATOM     13  C   UNL d   1     -21.342  24.476  21.476  0.00  0.00     0.093 A 
ATOM     14  S   UNL d   1     -19.624  24.648  21.806  0.00  0.00    -0.094 SA
ATOM     15  C   UNL d   1     -19.870  24.443  23.482  0.00  0.00     0.052 A 
ATOM     16  C   UNL d   1     -21.160  24.257  23.764  0.00  0.00     0.026 A 
BRANCH  13  17
ATOM     17  C   UNL d   1     -21.966  24.540  20.149  0.00  0.00     0.184 C 
ATOM     18  O   UNL d   1     -21.721  25.470  19.406  0.00  0.00    -0.646 OA
BRANCH  17  19
ATOM     19  O   UNL d   1     -22.808  23.563  19.753  0.00  0.00    -0.772 OA
ATOM     20  H   UNL d   1     -23.702  23.579  20.120  0.00  0.00     0.167 HD
ENDBRANCH  17  19
ENDBRANCH  13  17
ENDBRANCH   9  12
ENDBRANCH   4   8
BRANCH   1  21
ATOM     21  C   UNL d   1     -29.613  22.181  22.750  0.00  0.00     0.009 A 
ATOM     22  C   UNL d   1     -30.274  21.773  23.912  0.00  0.00     0.079 A 
ATOM     23  C   UNL d   1     -31.651  21.609  23.898  0.00  0.00     0.037 A 
ATOM     24  C   UNL d   1     -32.366  21.850  22.741  0.00  0.00     0.003 A 
ATOM     25  C   UNL d   1     -31.713  22.254  21.588  0.00  0.00     0.001 A 
ATOM     26  C   UNL d   1     -30.343  22.426  21.589  0.00  0.00     0.015 A 
BRANCH  22  27
ATOM     27  O   UNL d   1     -29.571  21.536  25.049  0.00  0.00    -0.355 OA
ATOM     28  C   UNL d   1     -30.316  21.139  26.202  0.00  0.00     0.210 C 
ENDBRANCH  22  27
ENDBRANCH   1  21
TORSDOF 6
ENDMDL
