MODEL 1
REMARK VINA RESULT:     -11.3      0.000      0.000
REMARK  7 active torsions:
REMARK  status: ('A' for Active; 'I' for Inactive)
REMARK    1  A    between atoms: C_2  and  O_3 
REMARK    2  A    between atoms: C_2  and  C_4 
REMARK    3  A    between atoms: C_5  and  C_6 
REMARK       I    between atoms: C_6  and  N_8 
REMARK    4  A    between atoms: N_8  and  C_9 
REMARK    5  A    between atoms: C_12  and  C_13 
REMARK    6  A    between atoms: C_16  and  O_17 
REMARK    7  A    between atoms: O_17  and  C_18 
ROOT
ATOM      1  C   UNL d   1     -27.949  22.144  23.601  0.00  0.00     0.074 A 
ATOM      2  C   UNL d   1     -27.488  23.087  24.512  0.00  0.00     0.034 A 
ATOM      3  C   UNL d   1     -26.252  23.671  24.337  0.00  0.00     0.014 A 
ATOM      4  C   UNL d   1     -25.463  23.319  23.242  0.00  0.00    -0.023 A 
ATOM      5  C   UNL d   1     -25.923  22.368  22.332  0.00  0.00     0.057 A 
ATOM      6  C   UNL d   1     -27.162  21.786  22.510  0.00  0.00     0.143 A 
ATOM      7  F   UNL d   1     -27.610  20.869  21.625  0.00  0.00    -0.204 F 
ENDROOT
BRANCH   1   8
ATOM      8  N   UNL d   1     -29.204  21.554  23.780  0.00  0.00    -0.321 N 
ATOM      9  C   UNL d   1     -30.296  22.113  23.223  0.00  0.00     0.253 C 
ATOM     10  O   UNL d   1     -30.179  23.068  22.480  0.00  0.00    -0.268 OA
ATOM     11  H   UNL d   1     -29.288  20.744  24.307  0.00  0.00     0.169 HD
BRANCH   9  12
ATOM     12  C   UNL d   1     -31.635  21.564  23.513  0.00  0.00     0.023 C 
ATOM     13  C   UNL d   1     -31.991  20.993  24.672  0.00  0.00     0.027 C 
ATOM     14  C   UNL d   1     -33.433  20.544  24.620  0.00  0.00     0.046 C 
ATOM     15  C   UNL d   1     -33.793  20.534  23.117  0.00  0.00     0.010 C 
ATOM     16  C   UNL d   1     -32.796  21.571  22.546  0.00  0.00     0.045 C 
BRANCH  13  17
ATOM     17  C   UNL d   1     -31.101  20.828  25.835  0.00  0.00     0.172 C 
ATOM     18  O   UNL d   1     -30.898  21.763  26.583  0.00  0.00    -0.646 OA
BRANCH  17  19
ATOM     19  O   UNL d   1     -30.511  19.639  26.068  0.00  0.00    -0.773 OA
ATOM     20  H   UNL d   1     -31.024  18.983  26.561  0.00  0.00     0.167 HD
ENDBRANCH  17  19
ENDBRANCH  13  17
ENDBRANCH   9  12
ENDBRANCH   1   8
BRANCH   4  21
ATOM     21  C   UNL d   1     -24.135  23.950  23.049  0.00  0.00    -0.026 A 
ATOM     22  C   UNL d   1     -23.966  25.311  23.296  0.00  0.00     0.015 A 
ATOM     23  C   UNL d   1     -22.730  25.895  23.116  0.00  0.00     0.038 A 
ATOM     24  C   UNL d   1     -21.654  25.128  22.690  0.00  0.00     0.078 A 
ATOM     25  C   UNL d   1     -21.820  23.773  22.442  0.00  0.00     0.038 A 
ATOM     26  C   UNL d   1     -23.052  23.181  22.626  0.00  0.00     0.015 A 
BRANCH  24  27
ATOM     27  O   UNL d   1     -20.437  25.707  22.514  0.00  0.00    -0.255 OA
BRANCH  27  28
ATOM     28  C   UNL d   1     -19.597  25.812  23.665  0.00  0.00     0.530 C 
ATOM     29  F   UNL d   1     -19.672  24.629  24.408  0.00  0.00    -0.144 F 
ATOM     30  F   UNL d   1     -18.275  26.025  23.260  0.00  0.00    -0.144 F 
ATOM     31  F   UNL d   1     -20.021  26.887  24.455  0.00  0.00    -0.144 F 
ENDBRANCH  27  28
ENDBRANCH  24  27
ENDBRANCH   4  21
TORSDOF 7
ENDMDL
