MODEL 1
REMARK VINA RESULT:      -9.1      0.000      0.000
REMARK  7 active torsions:
REMARK  status: ('A' for Active; 'I' for Inactive)
REMARK    1  A    between atoms: C_2  and  O_3 
REMARK    2  A    between atoms: C_2  and  C_4 
REMARK    3  A    between atoms: C_8  and  C_9 
REMARK    4  A    between atoms: C_9  and  C_10 
REMARK    5  A    between atoms: C_10  and  C_11 
REMARK    6  A    between atoms: CA_12  and  C_13 
REMARK    7  A    between atoms: C_13  and  OXT_15 
ROOT
ATOM      1  C   UNL d   1     -28.004  22.437  22.675  0.00  0.00     0.044 A 
ATOM      2  CA  UNL d   1     -26.816  22.728  23.268  0.00  0.00     0.122 A 
ATOM      3  N   UNL d   1     -25.643  22.333  22.662  0.00  0.00    -0.302 N 
ATOM      4  H   UNL d   1     -24.795  22.538  23.087  0.00  0.00     0.171 HD
ATOM      5  C   UNL d   1     -25.652  21.676  21.491  0.00  0.00     0.327 A 
ATOM      6  O   UNL d   1     -24.595  21.348  20.988  0.00  0.00    -0.247 OA
ATOM      7  N   UNL d   1     -26.799  21.368  20.861  0.00  0.00    -0.275 N 
ATOM      8  H   UNL d   1     -26.773  20.892  20.016  0.00  0.00     0.173 HD
ATOM      9  C   UNL d   1     -27.988  21.718  21.395  0.00  0.00     0.258 A 
ATOM     10  O   UNL d   1     -29.028  21.441  20.827  0.00  0.00    -0.267 OA
ENDROOT
BRANCH   1  11
ATOM     11  C   UNL d   1     -29.306  22.849  23.312  0.00  0.00     0.051 C 
BRANCH  11  12
ATOM     12  C   UNL d   1     -29.781  21.748  24.261  0.00  0.00     0.043 C 
BRANCH  12  13
ATOM     13  C   UNL d   1     -31.243  21.473  24.021  0.00  0.00    -0.057 A 
ATOM     14  C   UNL d   1     -31.936  20.636  24.876  0.00  0.00     0.007 A 
ATOM     15  C   UNL d   1     -33.281  20.383  24.667  0.00  0.00     0.002 A 
ATOM     16  C   UNL d   1     -33.935  20.955  23.595  0.00  0.00     0.018 A 
ATOM     17  C   UNL d   1     -33.238  21.795  22.724  0.00  0.00     0.038 A 
ATOM     18  C   UNL d   1     -31.884  22.051  22.945  0.00  0.00     0.025 A 
BRANCH  17  19
ATOM     19  C   UNL d   1     -33.933  22.411  21.575  0.00  0.00     0.176 C 
ATOM     20  O   UNL d   1     -33.649  22.074  20.443  0.00  0.00    -0.646 OA
BRANCH  19  21
ATOM     21  O   UNL d   1     -34.880  23.346  21.781  0.00  0.00    -0.773 OA
ATOM     22  H   UNL d   1     -35.057  23.960  21.056  0.00  0.00     0.167 HD
ENDBRANCH  19  21
ENDBRANCH  17  19
ENDBRANCH  12  13
ENDBRANCH  11  12
ENDBRANCH   1  11
BRANCH   2  23
ATOM     23  C   UNL d   1     -26.783  23.459  24.557  0.00  0.00     0.194 C 
ATOM     24  O   UNL d   1     -26.827  22.846  25.604  0.00  0.00    -0.645 OA
BRANCH  23  25
ATOM     25  OXT UNL d   1     -26.704  24.804  24.567  0.00  0.00    -0.772 OA
ATOM     26  HXT UNL d   1     -27.385  25.287  24.078  0.00  0.00     0.167 HD
ENDBRANCH  23  25
ENDBRANCH   2  23
TORSDOF 7
ENDMDL
