MODEL 1
REMARK VINA RESULT:     -10.8      0.000      0.000
REMARK  4 active torsions:
REMARK  status: ('A' for Active; 'I' for Inactive)
REMARK    1  A    between atoms: C_4  and  C_5 
REMARK    2  A    between atoms: C_5  and  O_7 
REMARK    3  A    between atoms: C_10  and  C_11 
REMARK    4  A    between atoms: C_14  and  C_15 
ROOT
ATOM      1  C   UNL d   1     -34.362  20.108  25.545  0.00  0.00     0.048 C 
ATOM      2  C   UNL d   1     -33.257  20.661  24.683  0.00  0.00    -0.059 A 
ATOM      3  C   UNL d   1     -33.538  21.079  23.396  0.00  0.00     0.027 A 
ATOM      4  C   UNL d   1     -32.527  21.593  22.586  0.00  0.00     0.069 A 
ATOM      5  C   UNL d   1     -31.210  21.681  23.091  0.00  0.00     0.102 A 
ATOM      6  N   UNL d   1     -30.052  22.121  22.572  0.00  0.00    -0.227 NA
ATOM      7  C   UNL d   1     -29.090  21.987  23.458  0.00  0.00     0.139 A 
ATOM      8  N   UNL d   1     -29.595  21.453  24.610  0.00  0.00    -0.338 N 
ATOM      9  H   UNL d   1     -29.100  21.255  25.420  0.00  0.00     0.167 HD
ATOM     10  C   UNL d   1     -30.947  21.248  24.403  0.00  0.00     0.064 A 
ATOM     11  C   UNL d   1     -31.973  20.742  25.187  0.00  0.00     0.038 A 
ENDROOT
BRANCH   7  12
ATOM     12  C   UNL d   1     -27.678  22.364  23.242  0.00  0.00     0.010 A 
ATOM     13  C   UNL d   1     -27.087  23.348  24.040  0.00  0.00     0.016 A 
ATOM     14  C   UNL d   1     -25.780  23.691  23.846  0.00  0.00     0.014 A 
ATOM     15  C   UNL d   1     -25.035  23.067  22.841  0.00  0.00    -0.019 A 
ATOM     16  C   UNL d   1     -25.626  22.084  22.043  0.00  0.00     0.014 A 
ATOM     17  C   UNL d   1     -26.931  21.736  22.241  0.00  0.00     0.016 A 
BRANCH  15  18
ATOM     18  C   UNL d   1     -23.624  23.442  22.626  0.00  0.00     0.015 A 
ATOM     19  S   UNL d   1     -22.993  24.253  21.199  0.00  0.00    -0.101 SA
ATOM     20  C   UNL d   1     -21.370  24.245  21.873  0.00  0.00     0.050 A 
ATOM     21  C   UNL d   1     -21.381  23.657  23.074  0.00  0.00     0.008 A 
ATOM     22  C   UNL d   1     -22.617  23.215  23.496  0.00  0.00     0.020 A 
ENDBRANCH  15  18
ENDBRANCH   7  12
BRANCH   4  23
ATOM     23  C   UNL d   1     -32.828  22.039  21.216  0.00  0.00     0.178 C 
ATOM     24  O   UNL d   1     -33.969  22.319  20.905  0.00  0.00    -0.646 OA
BRANCH  23  25
ATOM     25  O   UNL d   1     -31.838  22.135  20.306  0.00  0.00    -0.773 OA
ATOM     26  H   UNL d   1     -31.697  21.371  19.731  0.00  0.00     0.167 HD
ENDBRANCH  23  25
ENDBRANCH   4  23
TORSDOF 4
ENDMDL
