MODEL 1
REMARK VINA RESULT:      -9.9      0.000      0.000
REMARK  7 active torsions:
REMARK  status: ('A' for Active; 'I' for Inactive)
REMARK    1  A    between atoms: N_4  and  C_5 
REMARK    2  A    between atoms: C_7  and  O_8 
REMARK    3  A    between atoms: O_8  and  C_9 
REMARK    4  A    between atoms: C_9  and  C_11 
REMARK    5  A    between atoms: C_15  and  C_16 
REMARK       I    between atoms: C_16  and  N_18 
REMARK    6  A    between atoms: N_18  and  C_19 
REMARK    7  A    between atoms: N_32  and  C_33 
ROOT
ATOM      1  C   UNL d   1     -26.732  23.364  23.519  0.00  0.00     0.104 A 
ATOM      2  C   UNL d   1     -25.831  22.890  22.575  0.00  0.00     0.073 A 
ATOM      3  C   UNL d   1     -24.567  23.447  22.483  0.00  0.00     0.087 A 
ATOM      4  C   UNL d   1     -24.195  24.481  23.355  0.00  0.00     0.068 A 
ATOM      5  C   UNL d   1     -25.108  24.949  24.307  0.00  0.00     0.064 A 
ATOM      6  C   UNL d   1     -26.365  24.393  24.385  0.00  0.00     0.146 A 
ATOM      7  F   UNL d   1     -27.244  24.844  25.306  0.00  0.00    -0.204 F 
ENDROOT
BRANCH   4   8
ATOM      8  C   UNL d   1     -22.849  25.073  23.267  0.00  0.00     0.259 C 
ATOM      9  O   UNL d   1     -22.676  26.101  22.641  0.00  0.00    -0.267 OA
ATOM     10  N   UNL d   1     -21.810  24.473  23.880  0.00  0.00    -0.318 N 
ATOM     11  H   UNL d   1     -21.955  23.680  24.419  0.00  0.00     0.169 HD
BRANCH  10  12
ATOM     12  C   UNL d   1     -20.517  24.996  23.739  0.00  0.00     0.113 A 
ATOM     13  C   UNL d   1     -20.052  25.955  24.631  0.00  0.00     0.146 A 
ATOM     14  C   UNL d   1     -18.775  26.468  24.489  0.00  0.00     0.045 A 
ATOM     15  F   UNL d   1     -20.846  26.386  25.635  0.00  0.00    -0.204 F 
ATOM     16  C   UNL d   1     -17.962  26.028  23.461  0.00  0.00     0.006 A 
ATOM     17  C   UNL d   1     -18.420  25.074  22.572  0.00  0.00     0.045 A 
ATOM     18  C   UNL d   1     -19.694  24.551  22.711  0.00  0.00     0.146 A 
ATOM     19  F   UNL d   1     -20.139  23.614  21.845  0.00  0.00    -0.204 F 
ENDBRANCH  10  12
ENDBRANCH   4   8
BRANCH   3  20
ATOM     20  O   UNL d   1     -23.688  22.988  21.557  0.00  0.00    -0.336 OA
BRANCH  20  21
ATOM     21  C   UNL d   1     -23.825  23.492  20.226  0.00  0.00     0.232 C 
ATOM     22  C   UNL d   1     -22.455  23.924  19.700  0.00  0.00     0.049 C 
BRANCH  21  23
ATOM     23  C   UNL d   1     -24.397  22.397  19.323  0.00  0.00     0.413 C 
ATOM     24  F   UNL d   1     -23.540  21.291  19.331  0.00  0.00    -0.168 F 
ATOM     25  F   UNL d   1     -25.657  22.014  19.797  0.00  0.00    -0.168 F 
ATOM     26  F   UNL d   1     -24.518  22.884  18.018  0.00  0.00    -0.168 F 
ENDBRANCH  21  23
ENDBRANCH  20  21
ENDBRANCH   3  20
BRANCH   1  27
ATOM     27  N   UNL d   1     -28.009  22.804  23.604  0.00  0.00    -0.178 N 
ATOM     28  N   UNL d   1     -29.069  23.012  22.711  0.00  0.00    -0.149 NA
ATOM     29  C   UNL d   1     -30.084  22.323  23.124  0.00  0.00     0.127 A 
ATOM     30  C   UNL d   1     -31.433  22.262  22.455  0.00  0.00     0.093 C 
ATOM     31  N   UNL d   1     -29.732  21.659  24.273  0.00  0.00    -0.280 N 
ATOM     32  C   UNL d   1     -28.451  21.966  24.564  0.00  0.00     0.351 A 
ATOM     33  O   UNL d   1     -27.811  21.558  25.517  0.00  0.00    -0.244 OA
BRANCH  31  34
ATOM     34  C   UNL d   1     -30.600  20.773  25.053  0.00  0.00     0.096 A 
ATOM     35  C   UNL d   1     -30.590  20.936  26.575  0.00  0.00     0.028 A 
ATOM     36  C   UNL d   1     -31.799  21.406  25.763  0.00  0.00     0.028 A 
ENDBRANCH  31  34
ENDBRANCH   1  27
TORSDOF 7
ENDMDL
