MODEL 1
REMARK VINA RESULT:     -10.2      0.000      0.000
REMARK  7 active torsions:
REMARK  status: ('A' for Active; 'I' for Inactive)
REMARK    1  A    between atoms: C_2  and  C_3 
REMARK    2  A    between atoms: C_3  and  C_4 
REMARK    3  A    between atoms: C_4  and  O_6 
REMARK    4  A    between atoms: O_6  and  C_7 
REMARK    5  A    between atoms: C_9  and  N_10 
REMARK    6  A    between atoms: C_23  and  C_24 
REMARK       I    between atoms: C_24  and  N_26 
REMARK    7  A    between atoms: N_26  and  C_27 
ROOT
ATOM      1  C   UNL d   1     -26.015  23.276  23.375  0.00  0.00     0.087 A 
ATOM      2  C   UNL d   1     -27.391  23.130  23.410  0.00  0.00     0.073 A 
ATOM      3  C   UNL d   1     -28.019  22.254  22.535  0.00  0.00     0.104 A 
ATOM      4  C   UNL d   1     -27.269  21.527  21.610  0.00  0.00     0.146 A 
ATOM      5  F   UNL d   1     -27.888  20.681  20.758  0.00  0.00    -0.204 F 
ATOM      6  C   UNL d   1     -25.901  21.670  21.562  0.00  0.00     0.064 A 
ATOM      7  C   UNL d   1     -25.259  22.546  22.445  0.00  0.00     0.068 A 
ENDROOT
BRANCH   7   8
ATOM      8  C   UNL d   1     -23.795  22.702  22.397  0.00  0.00     0.259 C 
ATOM      9  O   UNL d   1     -23.077  21.726  22.492  0.00  0.00    -0.267 OA
ATOM     10  N   UNL d   1     -23.253  23.927  22.247  0.00  0.00    -0.321 N 
ATOM     11  H   UNL d   1     -23.826  24.698  22.113  0.00  0.00     0.169 HD
BRANCH  10  12
ATOM     12  C   UNL d   1     -21.867  24.084  22.284  0.00  0.00     0.059 A 
ATOM     13  C   UNL d   1     -21.129  24.203  21.106  0.00  0.00     0.078 A 
ATOM     14  C   UNL d   1     -19.760  24.363  21.188  0.00  0.00     0.142 A 
ATOM     15 CL   UNL d   1     -21.920  24.160  19.562  0.00  0.00    -0.080 Cl
ATOM     16  N   UNL d   1     -19.150  24.391  22.358  0.00  0.00    -0.271 NA
ATOM     17  C   UNL d   1     -19.813  24.276  23.492  0.00  0.00     0.118 A 
ATOM     18  C   UNL d   1     -21.184  24.119  23.499  0.00  0.00     0.050 A 
ENDBRANCH  10  12
ENDBRANCH   7   8
BRANCH   1  19
ATOM     19  O   UNL d   1     -25.399  24.127  24.233  0.00  0.00    -0.345 OA
BRANCH  19  20
ATOM     20  C   UNL d   1     -25.744  25.511  24.134  0.00  0.00     0.124 C 
ATOM     21  C   UNL d   1     -26.246  26.010  25.491  0.00  0.00     0.040 C 
BRANCH  20  22
ATOM     22  C   UNL d   1     -24.510  26.315  23.719  0.00  0.00     0.032 C 
BRANCH  22  23
ATOM     23  C   UNL d   1     -23.524  26.374  24.887  0.00  0.00    -0.002 C 
ATOM     24  C   UNL d   1     -22.333  27.255  24.504  0.00  0.00     0.005 C 
ENDBRANCH  22  23
ENDBRANCH  20  22
ENDBRANCH  19  20
ENDBRANCH   1  19
BRANCH   3  25
ATOM     25  N   UNL d   1     -29.407  22.104  22.578  0.00  0.00    -0.178 N 
ATOM     26  C   UNL d   1     -30.145  21.780  23.663  0.00  0.00     0.351 A 
ATOM     27  N   UNL d   1     -31.433  21.769  23.282  0.00  0.00    -0.284 N 
ATOM     28  O   UNL d   1     -29.720  21.543  24.779  0.00  0.00    -0.244 OA
ATOM     29  C   UNL d   1     -31.490  22.051  21.933  0.00  0.00     0.131 A 
ATOM     30  C   UNL d   1     -32.609  21.527  24.125  0.00  0.00     0.135 C 
ATOM     31  N   UNL d   1     -30.293  22.259  21.501  0.00  0.00    -0.149 NA
ATOM     32  C   UNL d   1     -32.774  22.088  21.137  0.00  0.00     0.081 C 
ATOM     33  C   UNL d   1     -33.940  22.223  22.124  0.00  0.00     0.009 C 
ATOM     34  C   UNL d   1     -33.793  21.162  23.221  0.00  0.00     0.021 C 
ENDBRANCH   3  25
TORSDOF 7
ENDMDL
