MODEL 1
REMARK VINA RESULT:      -9.8      0.000      0.000
REMARK  6 active torsions:
REMARK  status: ('A' for Active; 'I' for Inactive)
REMARK    1  A    between atoms: C_2  and  N_3 
REMARK    2  A    between atoms: C_4  and  C_5 
REMARK    3  A    between atoms: C_5  and  O_6 
REMARK    4  A    between atoms: N_8  and  C_9 
REMARK    5  A    between atoms: C_12  and  C_13 
REMARK    6  A    between atoms: N_17  and  C_18 
ROOT
ATOM      1  C   UNL d   1     -28.960  22.164  22.069  0.00  0.00     0.103 A 
ATOM      2  C   UNL d   1     -28.260  22.977  22.946  0.00  0.00     0.048 A 
ATOM      3  C   UNL d   1     -26.886  23.140  22.777  0.00  0.00    -0.010 A 
ATOM      4  C   UNL d   1     -26.092  23.986  23.671  0.00  0.00    -0.027 A 
ATOM      5  C   UNL d   1     -24.771  24.108  23.463  0.00  0.00     0.109 A 
ATOM      6  N   UNL d   1     -24.131  23.467  22.439  0.00  0.00    -0.285 N 
ATOM      7  C   UNL d   1     -24.782  22.674  21.565  0.00  0.00     0.263 A 
ATOM      8  O   UNL d   1     -24.176  22.125  20.662  0.00  0.00    -0.267 OA
ATOM      9  C   UNL d   1     -26.226  22.476  21.716  0.00  0.00     0.046 A 
ATOM     10  C   UNL d   1     -26.953  21.662  20.846  0.00  0.00     0.062 A 
ATOM     11  C   UNL d   1     -28.301  21.512  21.024  0.00  0.00     0.146 A 
ATOM     12  F   UNL d   1     -29.001  20.724  20.181  0.00  0.00    -0.204 F 
ENDROOT
BRANCH   1  13
ATOM     13  N   UNL d   1     -30.338  21.996  22.231  0.00  0.00    -0.178 N 
ATOM     14  N   UNL d   1     -31.307  22.060  21.221  0.00  0.00    -0.147 NA
ATOM     15  C   UNL d   1     -32.466  21.852  21.760  0.00  0.00     0.154 A 
ATOM     16  N   UNL d   1     -32.297  21.649  23.109  0.00  0.00    -0.283 N 
ATOM     17  C   UNL d   1     -30.981  21.735  23.389  0.00  0.00     0.351 A 
ATOM     18  O   UNL d   1     -30.468  21.605  24.485  0.00  0.00    -0.244 OA
BRANCH  15  19
ATOM     19  C   UNL d   1     -33.784  21.834  21.029  0.00  0.00     0.244 C 
BRANCH  19  20
ATOM     20  O   UNL d   1     -34.540  22.993  21.385  0.00  0.00    -0.393 OA
ATOM     21  H   UNL d   1     -35.460  22.970  21.085  0.00  0.00     0.209 HD
ENDBRANCH  19  20
ENDBRANCH  15  19
BRANCH  16  22
ATOM     22  C   UNL d   1     -33.364  21.382  24.075  0.00  0.00     0.131 C 
ATOM     23  C   UNL d   1     -33.225  19.953  24.606  0.00  0.00     0.027 C 
ENDBRANCH  16  22
ENDBRANCH   1  13
BRANCH   4  24
ATOM     24  C   UNL d   1     -26.751  24.713  24.815  0.00  0.00     0.013 C 
ATOM     25  C   UNL d   1     -26.890  23.765  26.008  0.00  0.00     0.015 C 
ATOM     26  C   UNL d   1     -25.895  25.915  25.216  0.00  0.00     0.015 C 
ENDBRANCH   4  24
BRANCH   6  27
ATOM     27  C   UNL d   1     -22.749  23.647  22.288  0.00  0.00     0.080 A 
ATOM     28  C   UNL d   1     -22.254  24.382  21.217  0.00  0.00     0.143 A 
ATOM     29  C   UNL d   1     -20.890  24.562  21.077  0.00  0.00     0.044 A 
ATOM     30  F   UNL d   1     -23.104  24.925  20.319  0.00  0.00    -0.204 F 
ATOM     31  C   UNL d   1     -20.020  24.005  21.996  0.00  0.00     0.003 A 
ATOM     32  C   UNL d   1     -20.509  23.269  23.058  0.00  0.00     0.002 A 
ATOM     33  C   UNL d   1     -21.870  23.085  23.206  0.00  0.00     0.033 A 
ENDBRANCH   6  27
TORSDOF 6
ENDMDL
