MODEL 1
REMARK VINA RESULT:     -12.1      0.000      0.000
REMARK  6 active torsions:
REMARK  status: ('A' for Active; 'I' for Inactive)
REMARK    1  A    between atoms: C_2  and  O_3 
REMARK    2  A    between atoms: C_2  and  C_4 
REMARK    3  A    between atoms: C_5  and  O_6 
REMARK    4  A    between atoms: C_7  and  C_8 
REMARK    5  A    between atoms: C_11  and  C_12 
REMARK    6  A    between atoms: C_15  and  O_16 
ROOT
ATOM      1  C   UNL d   1     -30.413  21.409  24.596  0.00  0.00     0.085 A 
ATOM      2  C   UNL d   1     -29.065  21.717  24.405  0.00  0.00     0.113 A 
ATOM      3  C   UNL d   1     -28.638  22.187  23.145  0.00  0.00     0.102 A 
ATOM      4  N   UNL d   1     -29.466  22.334  22.134  0.00  0.00    -0.245 NA
ATOM      5  C   UNL d   1     -30.770  22.063  22.231  0.00  0.00     0.069 A 
ATOM      6  C   UNL d   1     -31.629  22.240  21.130  0.00  0.00     0.032 A 
ATOM      7  C   UNL d   1     -32.954  21.956  21.255  0.00  0.00     0.002 A 
ATOM      8  C   UNL d   1     -33.479  21.492  22.458  0.00  0.00     0.001 A 
ATOM      9  C   UNL d   1     -32.678  21.309  23.546  0.00  0.00     0.015 A 
ATOM     10  C   UNL d   1     -31.310  21.590  23.452  0.00  0.00     0.012 A 
ENDROOT
BRANCH   3  11
ATOM     11  C   UNL d   1     -27.208  22.518  22.953  0.00  0.00    -0.004 A 
ATOM     12  C   UNL d   1     -26.619  23.536  23.705  0.00  0.00     0.014 A 
ATOM     13  C   UNL d   1     -25.289  23.843  23.526  0.00  0.00     0.013 A 
ATOM     14  C   UNL d   1     -24.529  23.137  22.593  0.00  0.00    -0.026 A 
ATOM     15  C   UNL d   1     -25.117  22.120  21.840  0.00  0.00     0.013 A 
ATOM     16  C   UNL d   1     -26.446  21.808  22.023  0.00  0.00     0.014 A 
BRANCH  14  17
ATOM     17  C   UNL d   1     -23.097  23.468  22.401  0.00  0.00    -0.026 A 
ATOM     18  C   UNL d   1     -22.656  23.982  21.182  0.00  0.00     0.015 A 
ATOM     19  C   UNL d   1     -21.324  24.289  21.006  0.00  0.00     0.037 A 
ATOM     20  C   UNL d   1     -20.421  24.088  22.042  0.00  0.00     0.065 A 
ATOM     21  C   UNL d   1     -20.856  23.577  23.256  0.00  0.00     0.037 A 
ATOM     22  C   UNL d   1     -22.189  23.272  23.441  0.00  0.00     0.015 A 
BRANCH  20  23
ATOM     23  O   UNL d   1     -19.109  24.392  21.866  0.00  0.00    -0.361 OA
ATOM     24  H   UNL d   1     -18.792  25.108  22.432  0.00  0.00     0.217 HD
ENDBRANCH  20  23
ENDBRANCH  14  17
ENDBRANCH   3  11
BRANCH   2  25
ATOM     25  O   UNL d   1     -28.180  21.572  25.420  0.00  0.00    -0.357 OA
ATOM     26  H   UNL d   1     -28.147  20.679  25.789  0.00  0.00     0.217 HD
ENDBRANCH   2  25
BRANCH   1  27
ATOM     27  C   UNL d   1     -30.913  20.920  25.891  0.00  0.00     0.180 C 
ATOM     28  O   UNL d   1     -31.690  21.596  26.537  0.00  0.00    -0.646 OA
BRANCH  27  29
ATOM     29  O   UNL d   1     -30.509  19.724  26.363  0.00  0.00    -0.773 OA
ATOM     30  H   UNL d   1     -30.316  19.036  25.710  0.00  0.00     0.167 HD
ENDBRANCH  27  29
ENDBRANCH   1  27
TORSDOF 6
ENDMDL
