MODEL 1
REMARK VINA RESULT:     -11.3      0.000      0.000
REMARK  6 active torsions:
REMARK  status: ('A' for Active; 'I' for Inactive)
REMARK    1  A    between atoms: C_7  and  N_8 
REMARK       I    between atoms: N_8  and  C_9 
REMARK    2  A    between atoms: C_9  and  C_11 
REMARK    3  A    between atoms: C_15  and  N_16 
REMARK    4  A    between atoms: C_27  and  O_28 
REMARK    5  A    between atoms: O_28  and  C_29 
REMARK    6  A    between atoms: C_29  and  C_31 
ROOT
ATOM      1  C   UNL d   1     -24.322  24.411  23.473  0.00  0.00     0.068 A 
ATOM      2  C   UNL d   1     -25.191  24.927  24.440  0.00  0.00     0.064 A 
ATOM      3  C   UNL d   1     -26.447  24.383  24.595  0.00  0.00     0.146 A 
ATOM      4  F   UNL d   1     -27.286  24.881  25.530  0.00  0.00    -0.204 F 
ATOM      5  C   UNL d   1     -26.855  23.319  23.791  0.00  0.00     0.104 A 
ATOM      6  C   UNL d   1     -25.997  22.798  22.832  0.00  0.00     0.073 A 
ATOM      7  C   UNL d   1     -24.734  23.342  22.664  0.00  0.00     0.087 A 
ENDROOT
BRANCH   1   8
ATOM      8  C   UNL d   1     -22.978  24.990  23.304  0.00  0.00     0.259 C 
ATOM      9  N   UNL d   1     -21.905  24.367  23.829  0.00  0.00    -0.323 N 
ATOM     10  H   UNL d   1     -22.025  23.578  24.381  0.00  0.00     0.169 HD
ATOM     11  O   UNL d   1     -22.837  26.030  22.689  0.00  0.00    -0.267 OA
BRANCH   9  12
ATOM     12  C   UNL d   1     -20.620  24.856  23.578  0.00  0.00     0.035 A 
ATOM     13  C   UNL d   1     -20.052  25.760  24.448  0.00  0.00     0.043 A 
ATOM     14  C   UNL d   1     -18.761  26.248  24.190  0.00  0.00    -0.005 A 
ATOM     15  C   UNL d   1     -18.143  27.173  25.053  0.00  0.00     0.016 A 
ATOM     16  C   UNL d   1     -18.060  25.805  23.041  0.00  0.00     0.067 A 
ATOM     17  C   UNL d   1     -16.886  27.606  24.741  0.00  0.00     0.027 A 
ATOM     18  C   UNL d   1     -16.252  27.131  23.594  0.00  0.00     0.031 A 
ATOM     19  C   UNL d   1     -14.866  27.621  23.266  0.00  0.00     0.070 C 
ATOM     20  N   UNL d   1     -16.831  26.269  22.794  0.00  0.00    -0.253 NA
ATOM     21  C   UNL d   1     -18.671  24.881  22.175  0.00  0.00     0.035 A 
ATOM     22  C   UNL d   1     -19.920  24.418  22.447  0.00  0.00     0.032 A 
ENDBRANCH   9  12
ENDBRANCH   1   8
BRANCH   7  23
ATOM     23  O   UNL d   1     -23.896  22.837  21.724  0.00  0.00    -0.336 OA
BRANCH  23  24
ATOM     24  C   UNL d   1     -23.985  23.392  20.410  0.00  0.00     0.232 C 
ATOM     25  C   UNL d   1     -22.593  23.826  19.944  0.00  0.00     0.049 C 
BRANCH  24  26
ATOM     26  C   UNL d   1     -24.541  22.340  19.448  0.00  0.00     0.413 C 
ATOM     27  F   UNL d   1     -24.587  22.871  18.154  0.00  0.00    -0.168 F 
ATOM     28  F   UNL d   1     -23.712  21.214  19.460  0.00  0.00    -0.168 F 
ATOM     29  F   UNL d   1     -25.830  21.976  19.849  0.00  0.00    -0.168 F 
ENDBRANCH  24  26
ENDBRANCH  23  24
ENDBRANCH   7  23
BRANCH   5  30
ATOM     30  N   UNL d   1     -28.129  22.772  23.955  0.00  0.00    -0.178 N 
ATOM     31  C   UNL d   1     -28.540  21.993  24.978  0.00  0.00     0.351 A 
ATOM     32  N   UNL d   1     -29.835  21.705  24.769  0.00  0.00    -0.284 N 
ATOM     33  O   UNL d   1     -27.862  21.619  25.918  0.00  0.00    -0.244 OA
ATOM     34  C   UNL d   1     -30.220  22.282  23.576  0.00  0.00     0.131 A 
ATOM     35  C   UNL d   1     -30.731  20.936  25.640  0.00  0.00     0.135 C 
ATOM     36  N   UNL d   1     -29.218  22.926  23.083  0.00  0.00    -0.149 NA
ATOM     37  C   UNL d   1     -31.605  22.144  22.986  0.00  0.00     0.081 C 
ATOM     38  C   UNL d   1     -32.555  21.691  24.103  0.00  0.00     0.009 C 
ATOM     39  C   UNL d   1     -31.943  20.480  24.818  0.00  0.00     0.021 C 
ENDBRANCH   5  30
TORSDOF 6
ENDMDL
