MODEL 1
REMARK VINA RESULT:      -7.6      0.000      0.000
REMARK  5 active torsions:
REMARK  status: ('A' for Active; 'I' for Inactive)
REMARK    1  A    between atoms: C_2  and  O_3 
REMARK    2  A    between atoms: O_3  and  C_4 
REMARK    3  A    between atoms: C_4  and  C_6 
REMARK    4  A    between atoms: C_8  and  N_9 
REMARK    5  A    between atoms: N_9  and  C_10 
ROOT
ATOM      1  C   UNL d   1     -27.033  22.440  22.861  0.00  0.00     0.107 A 
ATOM      2  S   UNL d   1     -25.704  23.341  23.585  0.00  0.00    -0.044 SA
ATOM      3  C   UNL d   1     -24.688  22.917  22.278  0.00  0.00     0.172 A 
ATOM      4  N   UNL d   1     -25.330  22.172  21.424  0.00  0.00    -0.228 NA
ATOM      5  C   UNL d   1     -26.579  21.892  21.692  0.00  0.00     0.057 A 
ATOM      6  C   UNL d   1     -27.441  21.043  20.794  0.00  0.00     0.072 C 
ENDROOT
BRANCH   3   7
ATOM      7  N   UNL d   1     -23.371  23.305  22.148  0.00  0.00    -0.335 N 
ATOM      8  H   UNL d   1     -22.799  22.870  21.497  0.00  0.00     0.168 HD
BRANCH   7   9
ATOM      9  C   UNL d   1     -22.861  24.327  22.954  0.00  0.00     0.034 A 
ATOM     10  C   UNL d   1     -23.310  25.631  22.792  0.00  0.00     0.031 A 
ATOM     11  C   UNL d   1     -22.804  26.639  23.590  0.00  0.00     0.021 A 
ATOM     12  C   UNL d   1     -21.851  26.350  24.550  0.00  0.00     0.011 A 
ATOM     13  C   UNL d   1     -21.401  25.052  24.714  0.00  0.00     0.021 A 
ATOM     14 BR   UNL d   1     -21.162  27.732  25.640  0.00  0.00    -0.051 Br
ATOM     15  C   UNL d   1     -21.906  24.039  23.922  0.00  0.00     0.031 A 
ENDBRANCH   7   9
ENDBRANCH   3   7
BRANCH   1  16
ATOM     16  C   UNL d   1     -28.339  22.300  23.397  0.00  0.00     0.302 C 
ATOM     17  O   UNL d   1     -28.538  21.533  24.319  0.00  0.00    -0.259 OA
BRANCH  16  18
ATOM     18  O   UNL d   1     -29.359  23.018  22.882  0.00  0.00    -0.317 OA
BRANCH  18  19
ATOM     19  C   UNL d   1     -30.568  22.313  22.598  0.00  0.00     0.174 C 
ATOM     20  C   UNL d   1     -30.823  22.326  21.088  0.00  0.00     0.034 C 
ENDBRANCH  18  19
ENDBRANCH  16  18
ENDBRANCH   1  16
TORSDOF 5
ENDMDL
