MODEL 1
REMARK VINA RESULT:     -10.6      0.000      0.000
REMARK  4 active torsions:
REMARK  status: ('A' for Active; 'I' for Inactive)
REMARK    1  A    between atoms: C_2  and  O_3 
REMARK    2  A    between atoms: C_4  and  C_7 
REMARK       I    between atoms: C_7  and  N_9 
REMARK    3  A    between atoms: N_9  and  C_10 
REMARK    4  A    between atoms: C_13  and  C_14 
ROOT
ATOM      1  C   UNL d   1     -33.574  21.435  23.126  0.00  0.00     0.077 C 
ATOM      2  C   UNL d   1     -32.193  21.834  22.672  0.00  0.00     0.065 C 
ATOM      3  C   UNL d   1     -31.197  22.000  23.587  0.00  0.00     0.141 C 
ATOM      4  C   UNL d   1     -31.462  21.796  24.979  0.00  0.00     0.107 C 
ATOM      5  N   UNL d   1     -31.671  21.634  26.084  0.00  0.00    -0.191 NA
ENDROOT
BRANCH   3   6
ATOM      6  C   UNL d   1     -29.850  22.388  23.144  0.00  0.00     0.269 C 
ATOM      7  O   UNL d   1     -29.715  23.163  22.215  0.00  0.00    -0.266 OA
ATOM      8  N   UNL d   1     -28.765  21.886  23.766  0.00  0.00    -0.322 N 
ATOM      9  H   UNL d   1     -28.869  21.211  24.455  0.00  0.00     0.169 HD
BRANCH   8  10
ATOM     10  C   UNL d   1     -27.488  22.338  23.420  0.00  0.00     0.036 A 
ATOM     11  C   UNL d   1     -26.772  21.694  22.419  0.00  0.00     0.054 A 
ATOM     12  C   UNL d   1     -25.510  22.135  22.079  0.00  0.00     0.047 A 
ATOM     13  C   UNL d   1     -24.958  23.237  22.734  0.00  0.00    -0.004 A 
ATOM     14 CL   UNL d   1     -24.611  21.325  20.833  0.00  0.00    -0.083 Cl
ATOM     15  C   UNL d   1     -25.682  23.885  23.734  0.00  0.00     0.016 A 
ATOM     16  C   UNL d   1     -26.940  23.436  24.074  0.00  0.00     0.030 A 
BRANCH  13  17
ATOM     17  C   UNL d   1     -23.604  23.718  22.366  0.00  0.00    -0.023 A 
ATOM     18  C   UNL d   1     -22.603  23.793  23.333  0.00  0.00     0.036 A 
ATOM     19  C   UNL d   1     -21.342  24.239  22.984  0.00  0.00     0.034 A 
ATOM     20  C   UNL d   1     -21.076  24.617  21.679  0.00  0.00     0.024 A 
ATOM     21 CL   UNL d   1     -20.092  24.329  24.184  0.00  0.00    -0.084 Cl
ATOM     22  C   UNL d   1     -22.069  24.548  20.717  0.00  0.00     0.003 A 
ATOM     23  C   UNL d   1     -23.330  24.101  21.055  0.00  0.00     0.012 A 
ENDBRANCH  13  17
ENDBRANCH   8  10
ENDBRANCH   3   6
BRANCH   2  24
ATOM     24  O   UNL d   1     -31.944  22.025  21.365  0.00  0.00    -0.364 OA
ATOM     25  H   UNL d   1     -31.123  22.483  21.137  0.00  0.00     0.217 HD
ENDBRANCH   2  24
TORSDOF 4
ENDMDL
