MODEL 1
REMARK VINA RESULT:      -9.4      0.000      0.000
REMARK  5 active torsions:
REMARK  status: ('A' for Active; 'I' for Inactive)
REMARK    1  A    between atoms: C_3  and  N_4 
REMARK    2  A    between atoms: N_4  and  C_5 
REMARK    3  A    between atoms: C_10  and  C_11 
REMARK    4  A    between atoms: C_11  and  O_13 
REMARK    5  A    between atoms: C_17  and  C_18 
ROOT
ATOM      1  N   UNL d   1     -29.388  22.925  23.349  0.00  0.00    -0.340 N 
ATOM      2  H   UNL d   1     -29.561  23.880  23.347  0.00  0.00     0.167 HD
ENDROOT
BRANCH   1   3
ATOM      3  C   UNL d   1     -30.238  22.063  24.049  0.00  0.00     0.040 A 
ATOM      4  C   UNL d   1     -31.502  21.775  23.549  0.00  0.00    -0.020 A 
ATOM      5  C   UNL d   1     -31.960  22.391  22.252  0.00  0.00     0.051 C 
ATOM      6  C   UNL d   1     -32.336  20.919  24.240  0.00  0.00     0.056 A 
ATOM      7  C   UNL d   1     -31.920  20.358  25.434  0.00  0.00     0.017 A 
ATOM      8  C   UNL d   1     -30.665  20.647  25.936  0.00  0.00     0.003 A 
ATOM      9  C   UNL d   1     -29.823  21.498  25.248  0.00  0.00     0.030 A 
BRANCH   6  10
ATOM     10  C   UNL d   1     -33.705  20.600  23.697  0.00  0.00     0.418 C 
ATOM     11  F   UNL d   1     -34.274  21.758  23.155  0.00  0.00    -0.166 F 
ATOM     12  F   UNL d   1     -33.596  19.624  22.701  0.00  0.00    -0.166 F 
ATOM     13  F   UNL d   1     -34.518  20.121  24.731  0.00  0.00    -0.166 F 
ENDBRANCH   6  10
ENDBRANCH   1   3
BRANCH   1  14
ATOM     14  C   UNL d   1     -28.305  22.416  22.655  0.00  0.00     0.144 A 
ATOM     15  C   UNL d   1     -27.000  22.695  23.094  0.00  0.00     0.083 A 
ATOM     16  C   UNL d   1     -25.920  22.163  22.379  0.00  0.00     0.024 A 
ATOM     17  C   UNL d   1     -26.187  21.392  21.262  0.00  0.00     0.020 A 
ATOM     18  C   UNL d   1     -27.501  21.166  20.888  0.00  0.00     0.119 A 
ATOM     19  N   UNL d   1     -28.504  21.671  21.578  0.00  0.00    -0.242 NA
BRANCH  15  20
ATOM     20  C   UNL d   1     -26.772  23.527  24.288  0.00  0.00     0.180 C 
ATOM     21  O   UNL d   1     -26.879  23.041  25.397  0.00  0.00    -0.646 OA
BRANCH  20  22
ATOM     22  O   UNL d   1     -26.447  24.828  24.151  0.00  0.00    -0.773 OA
ATOM     23  H   UNL d   1     -25.987  25.082  23.339  0.00  0.00     0.167 HD
ENDBRANCH  20  22
ENDBRANCH  15  20
ENDBRANCH   1  14
TORSDOF 5
ENDMDL
