MODEL 1
REMARK VINA RESULT:      -9.3      0.000      0.000
REMARK  7 active torsions:
REMARK  status: ('A' for Active; 'I' for Inactive)
REMARK    1  A    between atoms: C_2  and  N_3 
REMARK    2  A    between atoms: C_4  and  C_5 
REMARK    3  A    between atoms: C_5  and  O_6 
REMARK    4  A    between atoms: N_8  and  C_9 
REMARK    5  A    between atoms: C_12  and  C_13 
REMARK    6  A    between atoms: C_13  and  C_15 
REMARK    7  A    between atoms: N_20  and  C_21 
ROOT
ATOM      1  C   UNL d   1     -29.013  22.119  22.015  0.00  0.00     0.103 A 
ATOM      2  C   UNL d   1     -28.332  22.906  22.926  0.00  0.00     0.049 A 
ATOM      3  C   UNL d   1     -26.951  23.055  22.809  0.00  0.00     0.009 A 
ATOM      4  C   UNL d   1     -26.182  23.871  23.750  0.00  0.00     0.079 A 
ATOM      5  N   UNL d   1     -24.895  23.990  23.607  0.00  0.00    -0.167 NA
ATOM      6  N   UNL d   1     -24.192  23.365  22.577  0.00  0.00    -0.196 N 
ATOM      7  C   UNL d   1     -24.810  22.592  21.660  0.00  0.00     0.279 A 
ATOM      8  O   UNL d   1     -24.175  22.056  20.770  0.00  0.00    -0.265 OA
ATOM      9  C   UNL d   1     -26.262  22.409  21.756  0.00  0.00     0.049 A 
ATOM     10  C   UNL d   1     -26.967  21.623  20.842  0.00  0.00     0.062 A 
ATOM     11  C   UNL d   1     -28.331  21.482  20.975  0.00  0.00     0.146 A 
ATOM     12  F   UNL d   1     -29.014  20.722  20.092  0.00  0.00    -0.204 F 
ENDROOT
BRANCH   1  13
ATOM     13  N   UNL d   1     -30.397  21.963  22.134  0.00  0.00    -0.178 N 
ATOM     14  N   UNL d   1     -31.334  22.047  21.095  0.00  0.00    -0.147 NA
ATOM     15  C   UNL d   1     -32.511  21.846  21.596  0.00  0.00     0.154 A 
ATOM     16  N   UNL d   1     -32.386  21.630  22.946  0.00  0.00    -0.283 N 
ATOM     17  C   UNL d   1     -31.079  21.708  23.269  0.00  0.00     0.351 A 
ATOM     18  O   UNL d   1     -30.603  21.572  24.381  0.00  0.00    -0.244 OA
BRANCH  15  19
ATOM     19  C   UNL d   1     -33.805  21.851  20.824  0.00  0.00     0.244 C 
BRANCH  19  20
ATOM     20  O   UNL d   1     -34.612  22.950  21.252  0.00  0.00    -0.393 OA
ATOM     21  H   UNL d   1     -34.987  23.469  20.527  0.00  0.00     0.209 HD
ENDBRANCH  19  20
ENDBRANCH  15  19
BRANCH  16  22
ATOM     22  C   UNL d   1     -33.485  21.364  23.876  0.00  0.00     0.131 C 
ATOM     23  C   UNL d   1     -33.350  19.946  24.435  0.00  0.00     0.027 C 
ENDBRANCH  16  22
ENDBRANCH   1  13
BRANCH   4  24
ATOM     24  C   UNL d   1     -26.881  24.572  24.886  0.00  0.00     0.144 C 
ATOM     25  C   UNL d   1     -26.019  25.740  25.372  0.00  0.00     0.026 C 
BRANCH  24  26
ATOM     26  C   UNL d   1     -27.100  23.587  26.036  0.00  0.00     0.396 C 
ATOM     27  F   UNL d   1     -28.264  22.846  25.801  0.00  0.00    -0.170 F 
ATOM     28  F   UNL d   1     -26.006  22.720  26.122  0.00  0.00    -0.170 F 
ATOM     29  F   UNL d   1     -27.230  24.293  27.236  0.00  0.00    -0.170 F 
ENDBRANCH  24  26
ENDBRANCH   4  24
BRANCH   6  30
ATOM     30  C   UNL d   1     -22.806  23.544  22.492  0.00  0.00     0.068 A 
ATOM     31  C   UNL d   1     -22.267  24.324  21.478  0.00  0.00    -0.033 A 
ATOM     32  C   UNL d   1     -20.900  24.505  21.401  0.00  0.00     0.009 A 
ATOM     33  C   UNL d   1     -23.173  24.979  20.466  0.00  0.00     0.050 C 
ATOM     34  C   UNL d   1     -20.068  23.900  22.324  0.00  0.00     0.001 A 
ATOM     35  C   UNL d   1     -20.601  23.117  23.333  0.00  0.00     0.002 A 
ATOM     36  C   UNL d   1     -21.968  22.938  23.419  0.00  0.00     0.032 A 
ENDBRANCH   6  30
TORSDOF 7
ENDMDL
