MODEL 1
REMARK VINA RESULT:     -11.4      0.000      0.000
REMARK  5 active torsions:
REMARK  status: ('A' for Active; 'I' for Inactive)
REMARK    1  A    between atoms: C_2  and  O_3 
REMARK    2  A    between atoms: C_2  and  C_4 
REMARK    3  A    between atoms: C_11  and  C_12 
REMARK    4  A    between atoms: C_15  and  N_16 
REMARK    5  A    between atoms: N_16  and  C_17 
ROOT
ATOM      1  C   UNL d   1     -32.243  21.356  24.209  0.00  0.00     0.068 A 
ATOM      2  C   UNL d   1     -33.475  21.357  23.555  0.00  0.00     0.021 A 
ATOM      3  C   UNL d   1     -33.559  21.722  22.225  0.00  0.00     0.003 A 
ATOM      4  C   UNL d   1     -32.427  22.091  21.522  0.00  0.00     0.032 A 
ATOM      5  C   UNL d   1     -31.190  22.100  22.146  0.00  0.00     0.064 A 
ATOM      6  N   UNL d   1     -29.909  22.409  21.728  0.00  0.00    -0.338 N 
ATOM      7  H   UNL d   1     -29.647  22.700  20.841  0.00  0.00     0.167 HD
ATOM      8  C   UNL d   1     -29.083  22.228  22.803  0.00  0.00     0.139 A 
ATOM      9  N   UNL d   1     -29.784  21.829  23.839  0.00  0.00    -0.227 NA
ATOM     10  C   UNL d   1     -31.082  21.732  23.499  0.00  0.00     0.102 A 
ENDROOT
BRANCH   8  11
ATOM     11  C   UNL d   1     -27.622  22.447  22.799  0.00  0.00     0.010 A 
ATOM     12  C   UNL d   1     -27.029  23.236  23.788  0.00  0.00     0.017 A 
ATOM     13  C   UNL d   1     -25.667  23.438  23.782  0.00  0.00     0.030 A 
ATOM     14  C   UNL d   1     -24.881  22.857  22.791  0.00  0.00     0.032 A 
ATOM     15  C   UNL d   1     -25.468  22.071  21.804  0.00  0.00     0.030 A 
ATOM     16  C   UNL d   1     -26.829  21.861  21.808  0.00  0.00     0.017 A 
BRANCH  14  17
ATOM     17  N   UNL d   1     -23.503  23.063  22.786  0.00  0.00    -0.356 N 
ATOM     18  H   UNL d   1     -22.909  22.369  22.461  0.00  0.00     0.166 HD
BRANCH  17  19
ATOM     19  C   UNL d   1     -22.977  24.272  23.248  0.00  0.00     0.032 A 
ATOM     20  C   UNL d   1     -21.831  24.279  24.033  0.00  0.00     0.029 A 
ATOM     21  C   UNL d   1     -21.314  25.476  24.488  0.00  0.00     0.002 A 
ATOM     22  C   UNL d   1     -21.935  26.668  24.162  0.00  0.00     0.000 A 
ATOM     23  C   UNL d   1     -23.074  26.665  23.379  0.00  0.00     0.002 A 
ATOM     24  C   UNL d   1     -23.595  25.472  22.918  0.00  0.00     0.029 A 
ENDBRANCH  17  19
ENDBRANCH  14  17
ENDBRANCH   8  11
BRANCH   1  25
ATOM     25  C   UNL d   1     -32.156  20.974  25.627  0.00  0.00     0.178 C 
ATOM     26  O   UNL d   1     -32.820  20.047  26.048  0.00  0.00    -0.646 OA
BRANCH  25  27
ATOM     27  O   UNL d   1     -31.340  21.651  26.459  0.00  0.00    -0.773 OA
ATOM     28  H   UNL d   1     -31.264  22.605  26.319  0.00  0.00     0.167 HD
ENDBRANCH  25  27
ENDBRANCH   1  25
TORSDOF 5
ENDMDL
