MODEL 1
REMARK VINA RESULT:      -8.8      0.000      0.000
REMARK  6 active torsions:
REMARK  status: ('A' for Active; 'I' for Inactive)
REMARK    1  A    between atoms: O_2  and  C_3 
REMARK    2  A    between atoms: C_6  and  C_7 
REMARK    3  A    between atoms: C_7  and  C_8 
REMARK    4  A    between atoms: C_8  and  C_9 
REMARK    5  A    between atoms: CA_10  and  C_11 
REMARK    6  A    between atoms: C_11  and  OXT_13 
ROOT
ATOM      1  C   UNL d   1     -31.092  21.393  24.598  0.00  0.00     0.044 A 
ATOM      2  CA  UNL d   1     -32.236  20.711  24.327  0.00  0.00     0.122 A 
ATOM      3  N   UNL d   1     -32.547  19.591  25.066  0.00  0.00    -0.302 N 
ATOM      4  H   UNL d   1     -33.363  19.103  24.872  0.00  0.00     0.171 HD
ATOM      5  C   UNL d   1     -31.740  19.161  26.050  0.00  0.00     0.327 A 
ATOM      6  O   UNL d   1     -32.051  18.167  26.679  0.00  0.00    -0.247 OA
ATOM      7  N   UNL d   1     -30.597  19.799  26.358  0.00  0.00    -0.275 N 
ATOM      8  H   UNL d   1     -30.036  19.463  27.075  0.00  0.00     0.173 HD
ATOM      9  C   UNL d   1     -30.224  20.900  25.674  0.00  0.00     0.258 A 
ATOM     10  O   UNL d   1     -29.188  21.477  25.947  0.00  0.00    -0.267 OA
ENDROOT
BRANCH   1  11
ATOM     11  C   UNL d   1     -30.721  22.623  23.810  0.00  0.00     0.051 C 
BRANCH  11  12
ATOM     12  C   UNL d   1     -30.260  22.212  22.410  0.00  0.00     0.043 C 
BRANCH  12  13
ATOM     13  C   UNL d   1     -28.753  22.211  22.359  0.00  0.00    -0.058 A 
ATOM     14  C   UNL d   1     -28.029  22.905  23.310  0.00  0.00     0.010 A 
ATOM     15  C   UNL d   1     -26.648  22.900  23.269  0.00  0.00     0.037 A 
ATOM     16  C   UNL d   1     -25.989  22.202  22.267  0.00  0.00     0.068 A 
ATOM     17  C   UNL d   1     -26.717  21.511  21.311  0.00  0.00     0.037 A 
ATOM     18  C   UNL d   1     -28.098  21.520  21.356  0.00  0.00     0.010 A 
BRANCH  16  19
ATOM     19  O   UNL d   1     -24.630  22.195  22.224  0.00  0.00    -0.356 OA
ATOM     20  C   UNL d   1     -23.956  23.297  22.835  0.00  0.00     0.210 C 
ENDBRANCH  16  19
ENDBRANCH  12  13
ENDBRANCH  11  12
ENDBRANCH   1  11
BRANCH   2  21
ATOM     21  C   UNL d   1     -33.141  21.169  23.246  0.00  0.00     0.194 C 
ATOM     22  O   UNL d   1     -33.342  20.459  22.281  0.00  0.00    -0.645 OA
BRANCH  21  23
ATOM     23  OXT UNL d   1     -33.741  22.371  23.334  0.00  0.00    -0.772 OA
ATOM     24  HXT UNL d   1     -33.167  23.150  23.324  0.00  0.00     0.167 HD
ENDBRANCH  21  23
ENDBRANCH   2  21
TORSDOF 6
ENDMDL
