MODEL 1
REMARK VINA RESULT:      -9.7      0.000      0.000
REMARK  6 active torsions:
REMARK  status: ('A' for Active; 'I' for Inactive)
REMARK    1  A    between atoms: C_2  and  OXT_3 
REMARK    2  A    between atoms: C_2  and  CA_4 
REMARK    3  A    between atoms: C_13  and  C_14 
REMARK    4  A    between atoms: C_14  and  C_15 
REMARK    5  A    between atoms: C_15  and  C_16 
REMARK    6  A    between atoms: C_20  and  C_21 
ROOT
ATOM      1  CA  UNL d   1     -26.755  22.768  23.280  0.00  0.00     0.122 A 
ATOM      2  N   UNL d   1     -25.590  22.410  22.638  0.00  0.00    -0.302 N 
ATOM      3  H   UNL d   1     -24.735  22.644  23.035  0.00  0.00     0.171 HD
ATOM      4  C   UNL d   1     -25.614  21.746  21.470  0.00  0.00     0.327 A 
ATOM      5  O   UNL d   1     -24.564  21.453  20.934  0.00  0.00    -0.247 OA
ATOM      6  N   UNL d   1     -26.771  21.399  20.879  0.00  0.00    -0.275 N 
ATOM      7  H   UNL d   1     -26.756  20.921  20.034  0.00  0.00     0.173 HD
ATOM      8  C   UNL d   1     -27.952  21.711  21.451  0.00  0.00     0.258 A 
ATOM      9  O   UNL d   1     -29.000  21.398  20.918  0.00  0.00    -0.267 OA
ATOM     10  C   UNL d   1     -27.951  22.436  22.728  0.00  0.00     0.044 A 
ENDROOT
BRANCH  10  11
ATOM     11  C   UNL d   1     -29.245  22.808  23.404  0.00  0.00     0.051 C 
BRANCH  11  12
ATOM     12  C   UNL d   1     -29.598  21.746  24.448  0.00  0.00     0.043 C 
BRANCH  12  13
ATOM     13  C   UNL d   1     -31.047  21.361  24.301  0.00  0.00    -0.057 A 
ATOM     14  C   UNL d   1     -31.767  21.784  23.200  0.00  0.00     0.023 A 
ATOM     15  C   UNL d   1     -33.096  21.430  23.064  0.00  0.00     0.048 A 
ATOM     16  C   UNL d   1     -33.708  20.657  24.033  0.00  0.00     0.016 A 
ATOM     17  C   UNL d   1     -32.987  20.230  25.133  0.00  0.00     0.001 A 
ATOM     18  C   UNL d   1     -31.658  20.583  25.268  0.00  0.00     0.007 A 
BRANCH  15  19
ATOM     19  C   UNL d   1     -33.881  21.892  21.863  0.00  0.00     0.417 C 
ATOM     20  F   UNL d   1     -34.501  23.112  22.154  0.00  0.00    -0.166 F 
ATOM     21  F   UNL d   1     -33.015  22.056  20.776  0.00  0.00    -0.166 F 
ATOM     22  F   UNL d   1     -34.854  20.938  21.546  0.00  0.00    -0.166 F 
ENDBRANCH  15  19
ENDBRANCH  12  13
ENDBRANCH  11  12
ENDBRANCH  10  11
BRANCH   1  23
ATOM     23  C   UNL d   1     -26.705  23.506  24.565  0.00  0.00     0.194 C 
ATOM     24  O   UNL d   1     -26.701  22.897  25.615  0.00  0.00    -0.645 OA
BRANCH  23  25
ATOM     25  OXT UNL d   1     -26.664  24.852  24.568  0.00  0.00    -0.772 OA
ATOM     26  HXT UNL d   1     -25.930  25.270  24.097  0.00  0.00     0.167 HD
ENDBRANCH  23  25
ENDBRANCH   1  23
TORSDOF 6
ENDMDL
