MODEL 1
REMARK VINA RESULT:     -11.8      0.000      0.000
REMARK  6 active torsions:
REMARK  status: ('A' for Active; 'I' for Inactive)
REMARK    1  A    between atoms: C_2  and  C_3 
REMARK       I    between atoms: C_2  and  N_18 
REMARK    2  A    between atoms: C_3  and  C_4 
REMARK    3  A    between atoms: C_4  and  N_5 
REMARK       I    between atoms: N_5  and  C_6 
REMARK    4  A    between atoms: C_6  and  C_8 
REMARK    5  A    between atoms: C_11  and  C_12 
REMARK    6  A    between atoms: N_18  and  C_19 
ROOT
ATOM      1  C   UNL d   1     -24.627  22.205  20.657  0.00  0.00     0.122 C 
ENDROOT
BRANCH   1   2
ATOM      2  C   UNL d   1     -23.503  23.207  20.623  0.00  0.00     0.219 C 
ATOM      3  O   UNL d   1     -23.294  23.848  19.615  0.00  0.00    -0.274 OA
ATOM      4  N   UNL d   1     -22.730  23.392  21.712  0.00  0.00    -0.352 N 
ATOM      5  H   UNL d   1     -22.897  22.880  22.517  0.00  0.00     0.163 HD
BRANCH   4   6
ATOM      6  C   UNL d   1     -21.638  24.367  21.676  0.00  0.00     0.118 C 
ATOM      7  C   UNL d   1     -21.851  25.392  22.759  0.00  0.00    -0.029 A 
ATOM      8  C   UNL d   1     -20.825  25.861  23.549  0.00  0.00    -0.050 A 
ATOM      9  C   UNL d   1     -23.141  25.871  22.950  0.00  0.00     0.010 A 
ATOM     10  C   UNL d   1     -19.406  25.377  23.407  0.00  0.00     0.039 C 
ATOM     11  C   UNL d   1     -21.089  26.814  24.524  0.00  0.00     0.007 A 
ATOM     12  C   UNL d   1     -19.206  24.691  22.056  0.00  0.00     0.007 C 
ATOM     13  C   UNL d   1     -20.309  23.641  21.879  0.00  0.00     0.030 C 
ATOM     14  C   UNL d   1     -22.370  27.289  24.712  0.00  0.00     0.001 A 
ATOM     15  C   UNL d   1     -23.401  26.814  23.922  0.00  0.00     0.001 A 
ENDBRANCH   4   6
ENDBRANCH   1   2
BRANCH   1  16
ATOM     16  C   UNL d   1     -25.320  22.259  22.020  0.00  0.00     0.132 C 
BRANCH  16  17
ATOM     17  N   UNL d   1     -26.763  22.079  21.843  0.00  0.00    -0.356 N 
ATOM     18  C   UNL d   1     -27.621  22.593  22.745  0.00  0.00     0.251 C 
ATOM     19  O   UNL d   1     -27.200  23.206  23.707  0.00  0.00    -0.268 OA
ATOM     20  H   UNL d   1     -27.100  21.590  21.076  0.00  0.00     0.162 HD
BRANCH  18  21
ATOM     21  C   UNL d   1     -29.078  22.411  22.566  0.00  0.00     0.032 A 
ATOM     22  C   UNL d   1     -29.905  22.244  23.678  0.00  0.00     0.018 A 
ATOM     23  C   UNL d   1     -31.263  22.076  23.504  0.00  0.00     0.017 A 
ATOM     24  C   UNL d   1     -31.805  22.071  22.231  0.00  0.00     0.048 A 
ATOM     25  C   UNL d   1     -30.991  22.234  21.125  0.00  0.00     0.017 A 
ATOM     26  C   UNL d   1     -29.632  22.410  21.285  0.00  0.00     0.018 A 
BRANCH  24  27
ATOM     27  C   UNL d   1     -33.290  21.884  22.049  0.00  0.00     0.417 C 
ATOM     28  F   UNL d   1     -33.648  20.589  22.442  0.00  0.00    -0.166 F 
ATOM     29  F   UNL d   1     -33.978  22.817  22.832  0.00  0.00    -0.166 F 
ATOM     30  F   UNL d   1     -33.621  22.070  20.702  0.00  0.00    -0.166 F 
ENDBRANCH  24  27
ENDBRANCH  18  21
ENDBRANCH  16  17
ENDBRANCH   1  16
TORSDOF 6
ENDMDL
