MODEL 1
REMARK VINA RESULT:     -11.0      0.000      0.000
REMARK  6 active torsions:
REMARK  status: ('A' for Active; 'I' for Inactive)
REMARK    1  A    between atoms: C_2  and  O_3 
REMARK    2  A    between atoms: C_2  and  C_33 
REMARK    3  A    between atoms: O_3  and  C_4 
REMARK    4  A    between atoms: C_6  and  N_7 
REMARK    5  A    between atoms: C_20  and  C_21 
REMARK       I    between atoms: C_21  and  N_23 
REMARK    6  A    between atoms: N_23  and  C_24 
ROOT
ATOM      1  C   UNL d   1     -24.691  23.373  22.656  0.00  0.00     0.087 A 
ATOM      2  C   UNL d   1     -25.950  22.825  22.833  0.00  0.00     0.073 A 
ATOM      3  C   UNL d   1     -26.804  23.340  23.798  0.00  0.00     0.104 A 
ATOM      4  C   UNL d   1     -26.399  24.414  24.591  0.00  0.00     0.146 A 
ATOM      5  F   UNL d   1     -27.237  24.915  25.526  0.00  0.00    -0.204 F 
ATOM      6  C   UNL d   1     -25.147  24.962  24.429  0.00  0.00     0.064 A 
ATOM      7  C   UNL d   1     -24.281  24.448  23.457  0.00  0.00     0.068 A 
ENDROOT
BRANCH   7   8
ATOM      8  C   UNL d   1     -22.942  25.036  23.275  0.00  0.00     0.259 C 
ATOM      9  O   UNL d   1     -22.810  26.066  22.642  0.00  0.00    -0.267 OA
ATOM     10  N   UNL d   1     -21.862  24.431  23.809  0.00  0.00    -0.318 N 
ATOM     11  H   UNL d   1     -21.956  23.568  24.244  0.00  0.00     0.169 HD
BRANCH  10  12
ATOM     12  C   UNL d   1     -20.605  25.046  23.735  0.00  0.00     0.113 A 
ATOM     13  C   UNL d   1     -20.240  26.000  24.678  0.00  0.00     0.149 A 
ATOM     14  C   UNL d   1     -18.999  26.606  24.603  0.00  0.00     0.087 A 
ATOM     15  F   UNL d   1     -21.097  26.334  25.668  0.00  0.00    -0.203 F 
ATOM     16  C   UNL d   1     -18.121  26.264  23.588  0.00  0.00     0.122 A 
ATOM     17  C   UNL d   1     -18.482  25.315  22.646  0.00  0.00     0.087 A 
ATOM     18  F   UNL d   1     -16.910  26.858  23.516  0.00  0.00    -0.206 F 
ATOM     19  C   UNL d   1     -19.719  24.702  22.720  0.00  0.00     0.149 A 
ATOM     20  F   UNL d   1     -20.069  23.771  21.806  0.00  0.00    -0.203 F 
ENDBRANCH  10  12
ENDBRANCH   7   8
BRANCH   1  21
ATOM     21  O   UNL d   1     -23.856  22.870  21.713  0.00  0.00    -0.336 OA
BRANCH  21  22
ATOM     22  C   UNL d   1     -23.978  23.400  20.390  0.00  0.00     0.232 C 
ATOM     23  C   UNL d   1     -22.602  23.847  19.892  0.00  0.00     0.049 C 
BRANCH  22  24
ATOM     24  C   UNL d   1     -24.531  22.321  19.457  0.00  0.00     0.413 C 
ATOM     25  F   UNL d   1     -24.600  22.824  18.153  0.00  0.00    -0.168 F 
ATOM     26  F   UNL d   1     -23.689  21.205  19.483  0.00  0.00    -0.168 F 
ATOM     27  F   UNL d   1     -25.812  21.949  19.881  0.00  0.00    -0.168 F 
ENDBRANCH  22  24
ENDBRANCH  21  22
ENDBRANCH   1  21
BRANCH   3  28
ATOM     28  N   UNL d   1     -28.073  22.786  23.973  0.00  0.00    -0.178 N 
ATOM     29  C   UNL d   1     -28.475  22.015  25.007  0.00  0.00     0.351 A 
ATOM     30  N   UNL d   1     -29.769  21.717  24.806  0.00  0.00    -0.284 N 
ATOM     31  O   UNL d   1     -27.789  21.657  25.948  0.00  0.00    -0.244 OA
ATOM     32  C   UNL d   1     -30.163  22.278  23.609  0.00  0.00     0.131 A 
ATOM     33  C   UNL d   1     -30.656  20.950  25.688  0.00  0.00     0.135 C 
ATOM     34  N   UNL d   1     -29.167  22.924  23.104  0.00  0.00    -0.149 NA
ATOM     35  C   UNL d   1     -31.548  22.124  23.026  0.00  0.00     0.081 C 
ATOM     36  C   UNL d   1     -32.490  21.676  24.150  0.00  0.00     0.009 C 
ATOM     37  C   UNL d   1     -31.868  20.479  24.875  0.00  0.00     0.021 C 
ENDBRANCH   3  28
TORSDOF 6
ENDMDL
