MODEL 1
REMARK VINA RESULT:      -8.9      0.000      0.000
REMARK  9 active torsions:
REMARK  status: ('A' for Active; 'I' for Inactive)
REMARK    1  A    between atoms: C_2  and  N_3 
REMARK    2  A    between atoms: C_4  and  C_5 
REMARK    3  A    between atoms: C_5  and  O_6 
REMARK    4  A    between atoms: N_8  and  C_9 
REMARK    5  A    between atoms: C_11  and  O_12 
REMARK    6  A    between atoms: O_12  and  C_13 
REMARK    7  A    between atoms: C_13  and  C_15 
REMARK    8  A    between atoms: C_19  and  C_20 
REMARK       I    between atoms: C_20  and  N_22 
REMARK    9  A    between atoms: N_22  and  C_23 
ROOT
ATOM      1  C   UNL d   1     -26.603  23.499  23.706  0.00  0.00     0.104 A 
ATOM      2  C   UNL d   1     -25.654  23.008  22.819  0.00  0.00     0.073 A 
ATOM      3  C   UNL d   1     -24.398  23.586  22.758  0.00  0.00     0.087 A 
ATOM      4  C   UNL d   1     -24.087  24.668  23.595  0.00  0.00     0.068 A 
ATOM      5  C   UNL d   1     -25.049  25.158  24.486  0.00  0.00     0.064 A 
ATOM      6  C   UNL d   1     -26.296  24.575  24.538  0.00  0.00     0.146 A 
ATOM      7  F   UNL d   1     -27.227  25.052  25.394  0.00  0.00    -0.204 F 
ENDROOT
BRANCH   4   8
ATOM      8  C   UNL d   1     -22.753  25.289  23.536  0.00  0.00     0.259 C 
ATOM      9  O   UNL d   1     -22.567  26.266  22.836  0.00  0.00    -0.267 OA
ATOM     10  N   UNL d   1     -21.738  24.774  24.258  0.00  0.00    -0.319 N 
ATOM     11  H   UNL d   1     -21.856  23.938  24.735  0.00  0.00     0.169 HD
BRANCH  10  12
ATOM     12  C   UNL d   1     -20.511  25.447  24.320  0.00  0.00     0.096 A 
ATOM     13  C   UNL d   1     -20.356  26.533  25.172  0.00  0.00     0.064 A 
ATOM     14  C   UNL d   1     -19.143  27.196  25.231  0.00  0.00     0.026 A 
ATOM     15 CL   UNL d   1     -21.681  27.059  26.161  0.00  0.00    -0.082 Cl
ATOM     16  C   UNL d   1     -18.086  26.778  24.444  0.00  0.00     0.005 A 
ATOM     17  C   UNL d   1     -18.236  25.697  23.594  0.00  0.00     0.045 A 
ATOM     18  C   UNL d   1     -19.445  25.025  23.534  0.00  0.00     0.144 A 
ATOM     19  F   UNL d   1     -19.590  23.966  22.710  0.00  0.00    -0.204 F 
ENDBRANCH  10  12
ENDBRANCH   4   8
BRANCH   3  20
ATOM     20  O   UNL d   1     -23.470  23.107  21.893  0.00  0.00    -0.339 OA
BRANCH  20  21
ATOM     21  C   UNL d   1     -23.539  23.573  20.544  0.00  0.00     0.196 C 
ATOM     22  C   UNL d   1     -24.065  22.452  19.644  0.00  0.00     0.046 C 
BRANCH  21  23
ATOM     23  C   UNL d   1     -22.143  23.989  20.076  0.00  0.00     0.265 C 
ATOM     24  C   UNL d   1     -22.112  25.501  19.846  0.00  0.00     0.093 C 
ATOM     25  F   UNL d   1     -21.202  23.646  21.053  0.00  0.00    -0.204 F 
ATOM     26  F   UNL d   1     -21.836  23.329  18.880  0.00  0.00    -0.204 F 
ENDBRANCH  21  23
ENDBRANCH  20  21
ENDBRANCH   3  20
BRANCH   1  27
ATOM     27  N   UNL d   1     -27.870  22.914  23.764  0.00  0.00    -0.178 N 
ATOM     28  N   UNL d   1     -28.894  23.053  22.817  0.00  0.00    -0.147 NA
ATOM     29  C   UNL d   1     -29.912  22.364  23.219  0.00  0.00     0.154 A 
ATOM     30  N   UNL d   1     -29.598  21.765  24.414  0.00  0.00    -0.283 N 
ATOM     31  C   UNL d   1     -28.334  22.105  24.739  0.00  0.00     0.351 A 
ATOM     32  O   UNL d   1     -27.724  21.749  25.731  0.00  0.00    -0.244 OA
BRANCH  29  33
ATOM     33  C   UNL d   1     -31.229  22.239  22.497  0.00  0.00     0.244 C 
BRANCH  33  34
ATOM     34  O   UNL d   1     -31.011  22.354  21.088  0.00  0.00    -0.393 OA
ATOM     35  H   UNL d   1     -30.599  21.576  20.690  0.00  0.00     0.209 HD
ENDBRANCH  33  34
ENDBRANCH  29  33
BRANCH  30  36
ATOM     36  C   UNL d   1     -30.481  20.898  25.199  0.00  0.00     0.131 C 
ATOM     37  C   UNL d   1     -31.636  21.726  25.765  0.00  0.00     0.027 C 
ENDBRANCH  30  36
ENDBRANCH   1  27
TORSDOF 9
ENDMDL
