MODEL 1
REMARK VINA RESULT:      -9.7      0.000      0.000
REMARK  7 active torsions:
REMARK  status: ('A' for Active; 'I' for Inactive)
REMARK    1  A    between atoms: C_2  and  C_3 
REMARK    2  A    between atoms: C_2  and  C_32 
REMARK    3  A    between atoms: N_5  and  C_6 
REMARK    4  A    between atoms: C_19  and  N_20 
REMARK    5  A    between atoms: C_22  and  C_23 
REMARK    6  A    between atoms: C_23  and  O_24 
REMARK    7  A    between atoms: N_25  and  C_26 
ROOT
ATOM      1  C   UNL d   1     -25.842  23.936  23.694  0.00  0.00     0.005 A 
ATOM      2  C   UNL d   1     -24.541  24.116  23.346  0.00  0.00     0.114 A 
ATOM      3  N   UNL d   1     -24.002  23.539  22.235  0.00  0.00    -0.283 N 
ATOM      4  C   UNL d   1     -24.717  22.752  21.409  0.00  0.00     0.263 A 
ATOM      5  O   UNL d   1     -24.192  22.256  20.428  0.00  0.00    -0.267 OA
ATOM      6  C   UNL d   1     -26.130  22.496  21.698  0.00  0.00     0.044 A 
ATOM      7  C   UNL d   1     -26.917  21.688  20.873  0.00  0.00     0.020 A 
ATOM      8  C   UNL d   1     -28.229  21.478  21.182  0.00  0.00     0.033 A 
ATOM      9  C   UNL d   1     -28.798  22.062  22.315  0.00  0.00     0.064 A 
ATOM     10  C   UNL d   1     -28.041  22.871  23.146  0.00  0.00     0.045 A 
ATOM     11  C   UNL d   1     -26.700  23.090  22.847  0.00  0.00    -0.006 A 
ENDROOT
BRANCH   9  12
ATOM     12  N   UNL d   1     -30.145  21.832  22.611  0.00  0.00    -0.181 N 
ATOM     13  C   UNL d   1     -31.184  21.967  21.762  0.00  0.00     0.351 A 
ATOM     14  N   UNL d   1     -32.304  21.654  22.443  0.00  0.00    -0.283 N 
ATOM     15  O   UNL d   1     -31.123  22.312  20.595  0.00  0.00    -0.244 OA
ATOM     16  C   UNL d   1     -31.949  21.313  23.725  0.00  0.00     0.154 A 
ATOM     17  N   UNL d   1     -30.664  21.415  23.843  0.00  0.00    -0.147 NA
BRANCH  14  18
ATOM     18  C   UNL d   1     -33.667  21.667  21.906  0.00  0.00     0.131 C 
ATOM     19  C   UNL d   1     -34.013  20.280  21.360  0.00  0.00     0.027 C 
ENDBRANCH  14  18
BRANCH  16  20
ATOM     20  C   UNL d   1     -32.900  20.892  24.817  0.00  0.00     0.244 C 
BRANCH  20  21
ATOM     21  O   UNL d   1     -32.251  21.006  26.085  0.00  0.00    -0.393 OA
ATOM     22  H   UNL d   1     -32.300  20.205  26.624  0.00  0.00     0.209 HD
ENDBRANCH  20  21
ENDBRANCH  16  20
ENDBRANCH   9  12
BRANCH   1  23
ATOM     23  C   UNL d   1     -26.388  24.579  24.904  0.00  0.00     0.051 C 
ATOM     24  C   UNL d   1     -26.296  25.895  25.055  0.00  0.00     0.029 C 
BRANCH  23  25
ATOM     25  C   UNL d   1     -27.049  23.743  25.970  0.00  0.00     0.417 C 
ATOM     26  F   UNL d   1     -26.234  22.648  26.276  0.00  0.00    -0.166 F 
ATOM     27  F   UNL d   1     -27.239  24.518  27.119  0.00  0.00    -0.166 F 
ATOM     28  F   UNL d   1     -28.287  23.288  25.505  0.00  0.00    -0.166 F 
ENDBRANCH  23  25
ENDBRANCH   1  23
BRANCH   3  29
ATOM     29  C   UNL d   1     -22.651  23.772  21.943  0.00  0.00     0.102 A 
ATOM     30  C   UNL d   1     -21.660  23.236  22.756  0.00  0.00     0.064 A 
ATOM     31  C   UNL d   1     -20.328  23.468  22.464  0.00  0.00     0.026 A 
ATOM     32 CL   UNL d   1     -22.093  22.276  24.135  0.00  0.00    -0.082 Cl
ATOM     33  C   UNL d   1     -19.983  24.232  21.364  0.00  0.00     0.005 A 
ATOM     34  C   UNL d   1     -20.965  24.768  20.553  0.00  0.00     0.045 A 
ATOM     35  C   UNL d   1     -22.299  24.535  20.835  0.00  0.00     0.145 A 
ATOM     36  F   UNL d   1     -23.260  25.054  20.039  0.00  0.00    -0.204 F 
ENDBRANCH   3  29
TORSDOF 7
ENDMDL
