MODEL 1
REMARK VINA RESULT:     -10.5      0.000      0.000
REMARK  8 active torsions:
REMARK  status: ('A' for Active; 'I' for Inactive)
REMARK    1  A    between atoms: C_8  and  N_9 
REMARK       I    between atoms: N_9  and  C_10 
REMARK    2  A    between atoms: C_10  and  C_12 
REMARK    3  A    between atoms: C_16  and  N_17 
REMARK    4  A    between atoms: C_19  and  C_20 
REMARK    5  A    between atoms: C_20  and  O_22 
REMARK    6  A    between atoms: C_28  and  O_29 
REMARK    7  A    between atoms: O_29  and  C_30 
REMARK    8  A    between atoms: C_30  and  C_32 
ROOT
ATOM      1  C   UNL d   1     -24.223  24.435  23.402  0.00  0.00     0.068 A 
ATOM      2  C   UNL d   1     -25.105  24.928  24.369  0.00  0.00     0.064 A 
ATOM      3  C   UNL d   1     -26.350  24.360  24.517  0.00  0.00     0.146 A 
ATOM      4  F   UNL d   1     -27.201  24.837  25.451  0.00  0.00    -0.204 F 
ATOM      5  C   UNL d   1     -26.735  23.293  23.705  0.00  0.00     0.104 A 
ATOM      6  C   UNL d   1     -25.863  22.794  22.747  0.00  0.00     0.073 A 
ATOM      7  C   UNL d   1     -24.611  23.362  22.586  0.00  0.00     0.087 A 
ENDROOT
BRANCH   1   8
ATOM      8  C   UNL d   1     -22.890  25.041  23.239  0.00  0.00     0.259 C 
ATOM      9  N   UNL d   1     -21.821  24.492  23.852  0.00  0.00    -0.320 N 
ATOM     10  H   UNL d   1     -21.914  23.653  24.328  0.00  0.00     0.169 HD
ATOM     11  O   UNL d   1     -22.752  26.035  22.554  0.00  0.00    -0.267 OA
BRANCH   9  12
ATOM     12  C   UNL d   1     -20.579  25.132  23.798  0.00  0.00     0.080 A 
ATOM     13  C   UNL d   1     -20.262  26.115  24.726  0.00  0.00    -0.032 A 
ATOM     14  C   UNL d   1     -21.256  26.492  25.794  0.00  0.00     0.050 C 
ATOM     15  C   UNL d   1     -19.031  26.743  24.674  0.00  0.00     0.009 A 
ATOM     16  C   UNL d   1     -18.119  26.400  23.692  0.00  0.00     0.004 A 
ATOM     17  C   UNL d   1     -18.433  25.426  22.762  0.00  0.00     0.045 A 
ATOM     18  C   UNL d   1     -19.660  24.791  22.810  0.00  0.00     0.143 A 
ATOM     19  F   UNL d   1     -19.966  23.839  21.902  0.00  0.00    -0.204 F 
ENDBRANCH   9  12
ENDBRANCH   1   8
BRANCH   7  20
ATOM     20  O   UNL d   1     -23.760  22.878  21.646  0.00  0.00    -0.336 OA
BRANCH  20  21
ATOM     21  C   UNL d   1     -23.870  23.422  20.329  0.00  0.00     0.232 C 
ATOM     22  C   UNL d   1     -22.485  23.839  19.833  0.00  0.00     0.049 C 
BRANCH  21  23
ATOM     23  C   UNL d   1     -24.452  22.365  19.389  0.00  0.00     0.413 C 
ATOM     24  F   UNL d   1     -23.620  21.241  19.377  0.00  0.00    -0.168 F 
ATOM     25  F   UNL d   1     -25.727  21.997  19.834  0.00  0.00    -0.168 F 
ATOM     26  F   UNL d   1     -24.544  22.891  18.095  0.00  0.00    -0.168 F 
ENDBRANCH  21  23
ENDBRANCH  20  21
ENDBRANCH   7  20
BRANCH   5  27
ATOM     27  N   UNL d   1     -27.999  22.720  23.863  0.00  0.00    -0.178 N 
ATOM     28  C   UNL d   1     -28.436  22.026  24.934  0.00  0.00     0.351 A 
ATOM     29  N   UNL d   1     -29.705  21.650  24.681  0.00  0.00    -0.286 N 
ATOM     30  O   UNL d   1     -27.800  21.785  25.945  0.00  0.00    -0.244 OA
ATOM     31  C   UNL d   1     -30.054  22.117  23.438  0.00  0.00     0.159 A 
ATOM     32  C   UNL d   1     -30.565  20.876  25.579  0.00  0.00     0.163 C 
ATOM     33  N   UNL d   1     -29.047  22.754  22.932  0.00  0.00    -0.146 NA
BRANCH  31  34
ATOM     34  C   UNL d   1     -31.390  21.916  22.769  0.00  0.00     0.185 C 
ATOM     35  C   UNL d   1     -31.263  22.219  21.275  0.00  0.00     0.048 C 
BRANCH  34  36
ATOM     36  O   UNL d   1     -32.353  22.796  23.354  0.00  0.00    -0.388 OA
ATOM     37  H   UNL d   1     -32.746  23.421  22.728  0.00  0.00     0.210 HD
ENDBRANCH  34  36
ENDBRANCH  31  34
ENDBRANCH   5  27
TORSDOF 8
ENDMDL
