MODEL 1
REMARK VINA RESULT:     -10.9      0.000      0.000
REMARK  3 active torsions:
REMARK  status: ('A' for Active; 'I' for Inactive)
REMARK    1  A    between atoms: C_5  and  C_6 
REMARK       I    between atoms: C_6  and  N_8 
REMARK    2  A    between atoms: N_8  and  C_9 
REMARK    3  A    between atoms: N_17  and  C_18 
ROOT
ATOM      1  C   UNL d   1     -26.417  22.048  22.620  0.00  0.00     0.121 C 
ATOM      2  C   UNL d   1     -26.738  22.265  21.136  0.00  0.00     0.030 C 
ATOM      3  C   UNL d   1     -27.808  21.264  20.692  0.00  0.00     0.008 C 
ATOM      4  C   UNL d   1     -29.151  21.633  21.334  0.00  0.00     0.060 C 
ATOM      5  C   UNL d   1     -28.933  21.829  22.814  0.00  0.00     0.046 A 
ATOM      6  C   UNL d   1     -27.716  22.013  23.387  0.00  0.00     0.008 A 
ATOM      7  C   UNL d   1     -27.903  22.154  24.761  0.00  0.00     0.150 A 
ATOM      8  N   UNL d   1     -29.187  22.061  25.008  0.00  0.00    -0.179 NA
ATOM      9  N   UNL d   1     -29.857  21.856  23.792  0.00  0.00    -0.237 N 
ENDROOT
BRANCH   1  10
ATOM     10  N   UNL d   1     -25.585  23.149  23.111  0.00  0.00    -0.347 N 
ATOM     11  C   UNL d   1     -24.247  23.105  22.951  0.00  0.00     0.270 C 
ATOM     12  O   UNL d   1     -23.731  22.149  22.406  0.00  0.00    -0.266 OA
ATOM     13  H   UNL d   1     -25.996  23.911  23.546  0.00  0.00     0.163 HD
BRANCH  11  14
ATOM     14  C   UNL d   1     -23.405  24.221  23.442  0.00  0.00     0.124 A 
ATOM     15  C   UNL d   1     -23.896  25.525  23.402  0.00  0.00     0.038 A 
ATOM     16  C   UNL d   1     -23.098  26.558  23.869  0.00  0.00     0.011 A 
ATOM     17  C   UNL d   1     -21.834  26.253  24.349  0.00  0.00    -0.044 A 
ATOM     18  C   UNL d   1     -20.931  27.344  24.862  0.00  0.00     0.049 C 
ATOM     19  C   UNL d   1     -21.409  24.934  24.354  0.00  0.00     0.124 A 
ATOM     20  N   UNL d   1     -22.188  23.972  23.909  0.00  0.00    -0.255 NA
ENDBRANCH  11  14
ENDBRANCH   1  10
BRANCH   9  21
ATOM     21  C   UNL d   1     -31.240  21.705  23.627  0.00  0.00     0.064 A 
ATOM     22  C   UNL d   1     -31.960  20.891  24.490  0.00  0.00    -0.033 A 
ATOM     23  C   UNL d   1     -33.325  20.750  24.327  0.00  0.00     0.009 A 
ATOM     24  C   UNL d   1     -31.254  20.166  25.607  0.00  0.00     0.050 C 
ATOM     25  C   UNL d   1     -33.972  21.410  23.299  0.00  0.00     0.001 A 
ATOM     26  C   UNL d   1     -33.256  22.217  22.434  0.00  0.00     0.002 A 
ATOM     27  C   UNL d   1     -31.893  22.368  22.595  0.00  0.00     0.032 A 
ENDBRANCH   9  21
TORSDOF 3
ENDMDL
