MODEL 1
REMARK VINA RESULT:      -8.9      0.000      0.000
REMARK  7 active torsions:
REMARK  status: ('A' for Active; 'I' for Inactive)
REMARK    1  A    between atoms: C_2  and  C_3 
REMARK    2  A    between atoms: C_8  and  N_9 
REMARK    3  A    between atoms: C_11  and  C_12 
REMARK    4  A    between atoms: C_17  and  N_18 
REMARK    5  A    between atoms: C_20  and  C_21 
REMARK    6  A    between atoms: C_21  and  O_22 
REMARK    7  A    between atoms: N_23  and  C_24 
ROOT
ATOM      1  N   UNL d   1     -24.334  23.517  23.006  0.00  0.00    -0.288 N 
ATOM      2  C   UNL d   1     -25.030  24.027  24.068  0.00  0.00     0.109 A 
ATOM      3  C   UNL d   1     -26.355  23.864  24.203  0.00  0.00    -0.027 A 
ATOM      4  C   UNL d   1     -27.095  23.115  23.184  0.00  0.00    -0.010 A 
ATOM      5  C   UNL d   1     -28.473  22.919  23.269  0.00  0.00     0.048 A 
ATOM      6  C   UNL d   1     -29.119  22.200  22.279  0.00  0.00     0.103 A 
ATOM      7  C   UNL d   1     -28.402  21.681  21.195  0.00  0.00     0.146 A 
ATOM      8  F   UNL d   1     -29.054  20.986  20.237  0.00  0.00    -0.204 F 
ATOM      9  C   UNL d   1     -27.053  21.869  21.095  0.00  0.00     0.062 A 
ATOM     10  C   UNL d   1     -26.378  22.587  22.085  0.00  0.00     0.046 A 
ATOM     11  C   UNL d   1     -24.933  22.817  22.023  0.00  0.00     0.263 A 
ATOM     12  O   UNL d   1     -24.278  22.378  21.093  0.00  0.00    -0.267 OA
ENDROOT
BRANCH   6  13
ATOM     13  N   UNL d   1     -30.498  21.994  22.359  0.00  0.00    -0.178 N 
ATOM     14  C   UNL d   1     -31.193  21.657  23.466  0.00  0.00     0.351 A 
ATOM     15  N   UNL d   1     -32.490  21.557  23.112  0.00  0.00    -0.283 N 
ATOM     16  O   UNL d   1     -30.734  21.477  24.579  0.00  0.00    -0.244 OA
ATOM     17  C   UNL d   1     -32.595  21.830  21.771  0.00  0.00     0.154 A 
ATOM     18  N   UNL d   1     -31.417  22.099  21.306  0.00  0.00    -0.147 NA
BRANCH  15  19
ATOM     19  C   UNL d   1     -33.599  21.210  24.006  0.00  0.00     0.131 C 
ATOM     20  C   UNL d   1     -33.431  19.769  24.491  0.00  0.00     0.027 C 
ENDBRANCH  15  19
BRANCH  17  21
ATOM     21  C   UNL d   1     -33.873  21.822  20.971  0.00  0.00     0.244 C 
BRANCH  21  22
ATOM     22  O   UNL d   1     -34.663  22.959  21.323  0.00  0.00    -0.393 OA
ATOM     23  H   UNL d   1     -35.524  22.738  21.701  0.00  0.00     0.209 HD
ENDBRANCH  21  22
ENDBRANCH  17  21
ENDBRANCH   6  13
BRANCH   3  24
ATOM     24  C   UNL d   1     -27.075  24.445  25.391  0.00  0.00     0.013 C 
ATOM     25  C   UNL d   1     -27.048  23.442  26.545  0.00  0.00     0.015 C 
ATOM     26  C   UNL d   1     -26.383  25.739  25.824  0.00  0.00     0.015 C 
ENDBRANCH   3  24
BRANCH   1  27
ATOM     27  C   UNL d   1     -22.951  23.731  22.939  0.00  0.00     0.048 A 
ATOM     28  C   UNL d   1     -22.458  24.976  22.569  0.00  0.00    -0.031 A 
ATOM     29  C   UNL d   1     -21.093  25.185  22.509  0.00  0.00     0.009 A 
ATOM     30  C   UNL d   1     -20.221  24.155  22.805  0.00  0.00     0.001 A 
ATOM     31  C   UNL d   1     -20.709  22.913  23.168  0.00  0.00     0.002 A 
ATOM     32  C   UNL d   1     -22.072  22.699  23.235  0.00  0.00     0.030 A 
BRANCH  28  33
ATOM     33  C   UNL d   1     -23.409  26.097  22.241  0.00  0.00     0.036 C 
ATOM     34  C   UNL d   1     -23.417  27.111  23.387  0.00  0.00     0.010 C 
ENDBRANCH  28  33
ENDBRANCH   1  27
TORSDOF 7
ENDMDL
