MODEL 1
REMARK VINA RESULT:      -7.8      0.000      0.000
REMARK  7 active torsions:
REMARK  status: ('A' for Active; 'I' for Inactive)
REMARK    1  A    between atoms: C_2  and  C_4 
REMARK    2  A    between atoms: N_6  and  C_7 
REMARK    3  A    between atoms: C_13  and  O_14 
REMARK    4  A    between atoms: C_22  and  N_23 
REMARK    5  A    between atoms: C_25  and  C_26 
REMARK    6  A    between atoms: C_26  and  O_27 
REMARK    7  A    between atoms: N_28  and  C_29 
ROOT
ATOM      1  C   UNL d   1     -19.538  26.796  25.233  0.00  0.00    -0.004 A 
ATOM      2  C   UNL d   1     -18.349  27.312  25.642  0.00  0.00     0.113 A 
ATOM      3  N   UNL d   1     -17.186  27.068  24.975  0.00  0.00    -0.283 N 
ATOM      4  C   UNL d   1     -17.135  26.311  23.862  0.00  0.00     0.263 A 
ATOM      5  O   UNL d   1     -16.074  26.125  23.295  0.00  0.00    -0.267 OA
ATOM      6  C   UNL d   1     -18.366  25.715  23.336  0.00  0.00     0.047 A 
ATOM      7  C   UNL d   1     -18.368  24.924  22.185  0.00  0.00     0.062 A 
ATOM      8  C   UNL d   1     -19.540  24.390  21.731  0.00  0.00     0.146 A 
ATOM      9  F   UNL d   1     -19.539  23.624  20.618  0.00  0.00    -0.204 F 
ATOM     10  C   UNL d   1     -20.742  24.625  22.407  0.00  0.00     0.103 A 
ATOM     11  C   UNL d   1     -20.763  25.406  23.551  0.00  0.00     0.048 A 
ATOM     12  C   UNL d   1     -19.577  25.958  24.024  0.00  0.00    -0.006 A 
ENDROOT
BRANCH  10  13
ATOM     13  N   UNL d   1     -21.929  24.068  21.925  0.00  0.00    -0.178 N 
ATOM     14  C   UNL d   1     -22.474  24.277  20.707  0.00  0.00     0.351 A 
ATOM     15  N   UNL d   1     -23.609  23.552  20.644  0.00  0.00    -0.283 N 
ATOM     16  O   UNL d   1     -22.022  24.987  19.827  0.00  0.00    -0.244 OA
ATOM     17  C   UNL d   1     -23.770  22.896  21.840  0.00  0.00     0.154 A 
ATOM     18  N   UNL d   1     -22.777  23.193  22.616  0.00  0.00    -0.147 NA
BRANCH  15  19
ATOM     19  C   UNL d   1     -24.517  23.481  19.497  0.00  0.00     0.131 C 
ATOM     20  C   UNL d   1     -24.186  22.242  18.662  0.00  0.00     0.027 C 
ENDBRANCH  15  19
BRANCH  17  21
ATOM     21  C   UNL d   1     -24.914  21.981  22.192  0.00  0.00     0.244 C 
BRANCH  21  22
ATOM     22  O   UNL d   1     -24.723  20.714  21.562  0.00  0.00    -0.393 OA
ATOM     23  H   UNL d   1     -23.949  20.674  20.984  0.00  0.00     0.209 HD
ENDBRANCH  21  22
ENDBRANCH  17  21
ENDBRANCH  10  13
BRANCH   1  24
ATOM     24  C   UNL d   1     -20.774  27.079  25.987  0.00  0.00    -0.059 C 
ATOM     25  C   UNL d   1     -20.890  26.678  27.247  0.00  0.00     0.019 C 
ATOM     26  C   UNL d   1     -21.906  27.823  25.327  0.00  0.00     0.048 C 
ENDBRANCH   1  24
BRANCH   3  27
ATOM     27  C   UNL d   1     -15.998  27.630  25.463  0.00  0.00     0.101 A 
ATOM     28  C   UNL d   1     -15.570  28.880  25.017  0.00  0.00     0.192 A 
ATOM     29  N   UNL d   1     -14.449  29.411  25.475  0.00  0.00    -0.235 NA
ATOM     30  C   UNL d   1     -13.701  28.786  26.365  0.00  0.00     0.120 A 
ATOM     31  C   UNL d   1     -14.061  27.546  26.854  0.00  0.00     0.028 A 
ATOM     32  C   UNL d   1     -15.232  26.953  26.404  0.00  0.00    -0.029 A 
ATOM     33  C   UNL d   1     -15.659  25.603  26.921  0.00  0.00     0.050 C 
BRANCH  28  34
ATOM     34  O   UNL d   1     -16.310  29.556  24.102  0.00  0.00    -0.338 OA
ATOM     35  C   UNL d   1     -15.756  29.690  22.791  0.00  0.00     0.211 C 
ENDBRANCH  28  34
ENDBRANCH   3  27
TORSDOF 7
ENDMDL
