MODEL 1
REMARK VINA RESULT:     -11.3      0.000      0.000
REMARK  5 active torsions:
REMARK  status: ('A' for Active; 'I' for Inactive)
REMARK    1  A    between atoms: C_2  and  O_3 
REMARK    2  A    between atoms: C_2  and  C_4 
REMARK    3  A    between atoms: C_11  and  C_12 
REMARK    4  A    between atoms: C_15  and  O_16 
REMARK    5  A    between atoms: O_16  and  C_17 
ROOT
ATOM      1  C   UNL d   1     -32.198  21.385  24.215  0.00  0.00     0.068 A 
ATOM      2  C   UNL d   1     -33.437  21.408  23.578  0.00  0.00     0.021 A 
ATOM      3  C   UNL d   1     -33.532  21.767  22.247  0.00  0.00     0.003 A 
ATOM      4  C   UNL d   1     -32.403  22.110  21.528  0.00  0.00     0.032 A 
ATOM      5  C   UNL d   1     -31.157  22.097  22.135  0.00  0.00     0.064 A 
ATOM      6  N   UNL d   1     -29.875  22.379  21.700  0.00  0.00    -0.338 N 
ATOM      7  H   UNL d   1     -29.619  22.660  20.807  0.00  0.00     0.167 HD
ATOM      8  C   UNL d   1     -29.038  22.187  22.764  0.00  0.00     0.139 A 
ATOM      9  N   UNL d   1     -29.735  21.807  23.811  0.00  0.00    -0.227 NA
ATOM     10  C   UNL d   1     -31.038  21.734  23.489  0.00  0.00     0.102 A 
ENDROOT
BRANCH   8  11
ATOM     11  C   UNL d   1     -27.574  22.377  22.739  0.00  0.00     0.010 A 
ATOM     12  C   UNL d   1     -26.951  23.145  23.726  0.00  0.00     0.018 A 
ATOM     13  C   UNL d   1     -25.585  23.320  23.700  0.00  0.00     0.038 A 
ATOM     14  C   UNL d   1     -24.826  22.733  22.695  0.00  0.00     0.076 A 
ATOM     15  C   UNL d   1     -25.442  21.968  21.711  0.00  0.00     0.038 A 
ATOM     16  C   UNL d   1     -26.807  21.783  21.734  0.00  0.00     0.018 A 
BRANCH  14  17
ATOM     17  O   UNL d   1     -23.480  22.907  22.673  0.00  0.00    -0.311 OA
BRANCH  17  18
ATOM     18  C   UNL d   1     -22.982  24.089  23.120  0.00  0.00     0.076 A 
ATOM     19  C   UNL d   1     -21.876  24.106  23.958  0.00  0.00     0.037 A 
ATOM     20  C   UNL d   1     -21.372  25.309  24.411  0.00  0.00     0.003 A 
ATOM     21  C   UNL d   1     -21.968  26.497  24.029  0.00  0.00     0.000 A 
ATOM     22  C   UNL d   1     -23.071  26.484  23.195  0.00  0.00     0.003 A 
ATOM     23  C   UNL d   1     -23.575  25.283  22.735  0.00  0.00     0.037 A 
ENDBRANCH  17  18
ENDBRANCH  14  17
ENDBRANCH   8  11
BRANCH   1  24
ATOM     24  C   UNL d   1     -32.099  21.007  25.635  0.00  0.00     0.178 C 
ATOM     25  O   UNL d   1     -32.762  20.085  26.065  0.00  0.00    -0.646 OA
BRANCH  24  26
ATOM     26  O   UNL d   1     -31.274  21.685  26.457  0.00  0.00    -0.773 OA
ATOM     27  H   UNL d   1     -31.424  22.637  26.542  0.00  0.00     0.167 HD
ENDBRANCH  24  26
ENDBRANCH   1  24
TORSDOF 5
ENDMDL
