MODEL 1
REMARK VINA RESULT:     -10.7      0.000      0.000
REMARK  6 active torsions:
REMARK  status: ('A' for Active; 'I' for Inactive)
REMARK    1  A    between atoms: C_8  and  N_9 
REMARK       I    between atoms: N_9  and  C_10 
REMARK    2  A    between atoms: C_10  and  C_12 
REMARK    3  A    between atoms: C_16  and  N_17 
REMARK    4  A    between atoms: C_28  and  O_29 
REMARK    5  A    between atoms: O_29  and  C_30 
REMARK    6  A    between atoms: C_30  and  C_32 
ROOT
ATOM      1  C   UNL d   1     -24.191  24.571  23.618  0.00  0.00     0.068 A 
ATOM      2  C   UNL d   1     -25.090  25.098  24.552  0.00  0.00     0.064 A 
ATOM      3  C   UNL d   1     -26.339  24.537  24.696  0.00  0.00     0.146 A 
ATOM      4  F   UNL d   1     -27.207  25.045  25.597  0.00  0.00    -0.204 F 
ATOM      5  C   UNL d   1     -26.712  23.443  23.912  0.00  0.00     0.104 A 
ATOM      6  C   UNL d   1     -25.825  22.915  22.984  0.00  0.00     0.073 A 
ATOM      7  C   UNL d   1     -24.569  23.476  22.827  0.00  0.00     0.087 A 
ENDROOT
BRANCH   1   8
ATOM      8  C   UNL d   1     -22.854  25.168  23.461  0.00  0.00     0.259 C 
ATOM      9  N   UNL d   1     -21.801  24.647  24.123  0.00  0.00    -0.320 N 
ATOM     10  H   UNL d   1     -21.914  23.846  24.660  0.00  0.00     0.169 HD
ATOM     11  O   UNL d   1     -22.699  26.132  22.737  0.00  0.00    -0.267 OA
BRANCH   9  12
ATOM     12  C   UNL d   1     -20.546  25.258  24.034  0.00  0.00     0.082 A 
ATOM     13  C   UNL d   1     -20.199  26.290  24.902  0.00  0.00    -0.031 A 
ATOM     14  C   UNL d   1     -21.165  26.769  25.955  0.00  0.00     0.050 C 
ATOM     15  C   UNL d   1     -18.942  26.860  24.779  0.00  0.00     0.028 A 
ATOM     16  C   UNL d   1     -18.083  26.395  23.803  0.00  0.00     0.119 A 
ATOM     17  N   UNL d   1     -18.442  25.418  22.991  0.00  0.00    -0.246 NA
ATOM     18  C   UNL d   1     -19.628  24.848  23.074  0.00  0.00     0.152 A 
ATOM     19 CL   UNL d   1     -20.044  23.567  21.978  0.00  0.00    -0.060 Cl
ENDBRANCH   9  12
ENDBRANCH   1   8
BRANCH   7  20
ATOM     20  O   UNL d   1     -23.704  22.964  21.916  0.00  0.00    -0.336 OA
BRANCH  20  21
ATOM     21  C   UNL d   1     -23.969  23.246  20.541  0.00  0.00     0.232 C 
ATOM     22  C   UNL d   1     -22.674  23.683  19.851  0.00  0.00     0.049 C 
BRANCH  21  23
ATOM     23  C   UNL d   1     -24.510  21.989  19.857  0.00  0.00     0.413 C 
ATOM     24  F   UNL d   1     -25.898  22.094  19.719  0.00  0.00    -0.168 F 
ATOM     25  F   UNL d   1     -23.925  21.857  18.594  0.00  0.00    -0.168 F 
ATOM     26  F   UNL d   1     -24.202  20.866  20.633  0.00  0.00    -0.168 F 
ENDBRANCH  21  23
ENDBRANCH  20  21
ENDBRANCH   7  20
BRANCH   5  27
ATOM     27  N   UNL d   1     -27.979  22.878  24.064  0.00  0.00    -0.178 N 
ATOM     28  C   UNL d   1     -28.393  22.104  25.093  0.00  0.00     0.351 A 
ATOM     29  N   UNL d   1     -29.677  21.797  24.871  0.00  0.00    -0.280 N 
ATOM     30  O   UNL d   1     -27.720  21.753  26.047  0.00  0.00    -0.244 OA
ATOM     31  C   UNL d   1     -30.055  22.353  23.663  0.00  0.00     0.155 A 
ATOM     32  C   UNL d   1     -30.596  21.025  25.716  0.00  0.00     0.161 C 
ATOM     33  N   UNL d   1     -29.059  23.004  23.175  0.00  0.00    -0.147 NA
ATOM     34  C   UNL d   1     -31.436  22.169  23.076  0.00  0.00     0.248 C 
ATOM     35  O   UNL d   1     -32.295  21.706  24.128  0.00  0.00    -0.382 OA
ATOM     36  C   UNL d   1     -31.778  20.579  24.844  0.00  0.00     0.188 C 
ENDBRANCH   5  27
TORSDOF 6
ENDMDL
