MODEL 1
REMARK VINA RESULT:      -9.1      0.000      0.000
REMARK  7 active torsions:
REMARK  status: ('A' for Active; 'I' for Inactive)
REMARK    1  A    between atoms: C_2  and  C_4 
REMARK    2  A    between atoms: N_6  and  C_7 
REMARK    3  A    between atoms: C_12  and  O_13 
REMARK    4  A    between atoms: C_21  and  N_22 
REMARK    5  A    between atoms: C_24  and  C_25 
REMARK    6  A    between atoms: C_25  and  O_26 
REMARK    7  A    between atoms: N_27  and  C_28 
ROOT
ATOM      1  C   UNL d   1     -26.005  23.927  24.253  0.00  0.00    -0.004 A 
ATOM      2  C   UNL d   1     -24.682  24.127  24.017  0.00  0.00     0.113 A 
ATOM      3  N   UNL d   1     -24.057  23.617  22.918  0.00  0.00    -0.285 N 
ATOM      4  C   UNL d   1     -24.703  22.874  21.998  0.00  0.00     0.263 A 
ATOM      5  O   UNL d   1     -24.102  22.435  21.034  0.00  0.00    -0.267 OA
ATOM      6  C   UNL d   1     -26.132  22.597  22.166  0.00  0.00     0.047 A 
ATOM      7  C   UNL d   1     -26.847  21.833  21.241  0.00  0.00     0.062 A 
ATOM      8  C   UNL d   1     -28.179  21.601  21.440  0.00  0.00     0.146 A 
ATOM      9  F   UNL d   1     -28.869  20.861  20.544  0.00  0.00    -0.204 F 
ATOM     10  C   UNL d   1     -28.837  22.121  22.558  0.00  0.00     0.103 A 
ATOM     11  C   UNL d   1     -28.147  22.882  23.488  0.00  0.00     0.048 A 
ATOM     12  C   UNL d   1     -26.790  23.126  23.300  0.00  0.00    -0.006 A 
ENDROOT
BRANCH  10  13
ATOM     13  N   UNL d   1     -30.199  21.872  22.740  0.00  0.00    -0.178 N 
ATOM     14  C   UNL d   1     -31.175  22.055  21.825  0.00  0.00     0.351 A 
ATOM     15  N   UNL d   1     -32.339  21.692  22.400  0.00  0.00    -0.283 N 
ATOM     16  O   UNL d   1     -31.030  22.467  20.689  0.00  0.00    -0.244 OA
ATOM     17  C   UNL d   1     -32.079  21.291  23.687  0.00  0.00     0.154 A 
ATOM     18  N   UNL d   1     -30.807  21.392  23.908  0.00  0.00    -0.147 NA
BRANCH  15  19
ATOM     19  C   UNL d   1     -33.658  21.726  21.762  0.00  0.00     0.131 C 
ATOM     20  C   UNL d   1     -33.994  20.338  21.211  0.00  0.00     0.027 C 
ENDBRANCH  15  19
BRANCH  17  21
ATOM     21  C   UNL d   1     -33.106  20.811  24.681  0.00  0.00     0.244 C 
BRANCH  21  22
ATOM     22  O   UNL d   1     -32.525  20.774  25.986  0.00  0.00    -0.393 OA
ATOM     23  H   UNL d   1     -32.688  19.950  26.466  0.00  0.00     0.209 HD
ENDBRANCH  21  22
ENDBRANCH  17  21
ENDBRANCH  10  13
BRANCH   1  24
ATOM     24  C   UNL d   1     -26.644  24.502  25.453  0.00  0.00    -0.059 C 
ATOM     25  C   UNL d   1     -26.577  25.809  25.678  0.00  0.00     0.019 C 
ATOM     26  C   UNL d   1     -27.371  23.606  26.422  0.00  0.00     0.048 C 
ENDBRANCH   1  24
BRANCH   3  27
ATOM     27  C   UNL d   1     -22.690  23.871  22.741  0.00  0.00     0.075 A 
ATOM     28  C   UNL d   1     -22.262  25.129  22.322  0.00  0.00     0.095 A 
ATOM     29  C   UNL d   1     -20.909  25.374  22.151  0.00  0.00     0.039 A 
ATOM     30  C   UNL d   1     -19.988  24.373  22.394  0.00  0.00     0.003 A 
ATOM     31  C   UNL d   1     -20.412  23.124  22.809  0.00  0.00     0.002 A 
ATOM     32  C   UNL d   1     -21.759  22.870  22.984  0.00  0.00     0.033 A 
BRANCH  28  33
ATOM     33  O   UNL d   1     -23.169  26.115  22.089  0.00  0.00    -0.354 OA
ATOM     34  C   UNL d   1     -23.480  26.981  23.182  0.00  0.00     0.210 C 
ENDBRANCH  28  33
ENDBRANCH   3  27
TORSDOF 7
ENDMDL
