MODEL 1
REMARK VINA RESULT:     -10.8      0.000      0.000
REMARK  6 active torsions:
REMARK  status: ('A' for Active; 'I' for Inactive)
REMARK    1  A    between atoms: C_2  and  O_3 
REMARK    2  A    between atoms: C_2  and  C_33 
REMARK    3  A    between atoms: O_3  and  C_4 
REMARK    4  A    between atoms: C_6  and  N_7 
REMARK    5  A    between atoms: C_20  and  C_21 
REMARK       I    between atoms: C_21  and  N_23 
REMARK    6  A    between atoms: N_23  and  C_24 
ROOT
ATOM      1  C   UNL d   1     -20.623  25.117  23.813  0.00  0.00     0.058 A 
ATOM      2  C   UNL d   1     -19.832  24.590  22.804  0.00  0.00     0.073 A 
ATOM      3  C   UNL d   1     -18.563  25.094  22.583  0.00  0.00     0.118 A 
ATOM      4  F   UNL d   1     -17.798  24.580  21.595  0.00  0.00    -0.206 F 
ATOM      5  C   UNL d   1     -18.070  26.123  23.374  0.00  0.00     0.044 A 
ATOM      6  C   UNL d   1     -18.840  26.654  24.384  0.00  0.00     0.028 A 
ATOM      7  C   UNL d   1     -20.127  26.157  24.615  0.00  0.00     0.071 A 
ATOM      8  C   UNL d   1     -20.932  26.706  25.664  0.00  0.00     0.102 C 
ATOM      9  N   UNL d   1     -21.572  27.141  26.495  0.00  0.00    -0.191 NA
ENDROOT
BRANCH   1  10
ATOM     10  N   UNL d   1     -21.903  24.614  24.035  0.00  0.00    -0.321 N 
ATOM     11  C   UNL d   1     -22.945  25.084  23.321  0.00  0.00     0.259 C 
ATOM     12  O   UNL d   1     -22.782  25.999  22.537  0.00  0.00    -0.267 OA
ATOM     13  H   UNL d   1     -22.045  23.925  24.704  0.00  0.00     0.169 HD
BRANCH  11  14
ATOM     14  C   UNL d   1     -24.282  24.490  23.491  0.00  0.00     0.068 A 
ATOM     15  C   UNL d   1     -24.675  23.404  22.696  0.00  0.00     0.087 A 
ATOM     16  C   UNL d   1     -25.931  22.846  22.864  0.00  0.00     0.073 A 
ATOM     17  C   UNL d   1     -26.802  23.370  23.810  0.00  0.00     0.104 A 
ATOM     18  C   UNL d   1     -26.413  24.450  24.603  0.00  0.00     0.146 A 
ATOM     19  F   UNL d   1     -27.263  24.949  25.525  0.00  0.00    -0.204 F 
ATOM     20  C   UNL d   1     -25.164  25.008  24.446  0.00  0.00     0.064 A 
BRANCH  15  21
ATOM     21  O   UNL d   1     -23.825  22.897  21.767  0.00  0.00    -0.336 OA
BRANCH  21  22
ATOM     22  C   UNL d   1     -23.940  23.405  20.437  0.00  0.00     0.232 C 
ATOM     23  C   UNL d   1     -22.558  23.826  19.930  0.00  0.00     0.049 C 
BRANCH  22  24
ATOM     24  C   UNL d   1     -24.510  22.318  19.524  0.00  0.00     0.413 C 
ATOM     25  F   UNL d   1     -25.790  21.963  19.962  0.00  0.00    -0.168 F 
ATOM     26  F   UNL d   1     -24.582  22.801  18.212  0.00  0.00    -0.168 F 
ATOM     27  F   UNL d   1     -23.677  21.194  19.561  0.00  0.00    -0.168 F 
ENDBRANCH  22  24
ENDBRANCH  21  22
ENDBRANCH  15  21
BRANCH  17  28
ATOM     28  N   UNL d   1     -28.071  22.808  23.974  0.00  0.00    -0.178 N 
ATOM     29  C   UNL d   1     -28.477  22.035  25.004  0.00  0.00     0.351 A 
ATOM     30  N   UNL d   1     -29.768  21.729  24.792  0.00  0.00    -0.284 N 
ATOM     31  O   UNL d   1     -27.797  21.680  25.951  0.00  0.00    -0.244 OA
ATOM     32  C   UNL d   1     -30.153  22.289  23.591  0.00  0.00     0.131 A 
ATOM     33  C   UNL d   1     -30.658  20.957  25.666  0.00  0.00     0.135 C 
ATOM     34  N   UNL d   1     -29.157  22.940  23.096  0.00  0.00    -0.149 NA
ATOM     35  C   UNL d   1     -31.533  22.128  22.996  0.00  0.00     0.081 C 
ATOM     36  C   UNL d   1     -32.483  21.674  24.113  0.00  0.00     0.009 C 
ATOM     37  C   UNL d   1     -31.860  20.479  24.843  0.00  0.00     0.021 C 
ENDBRANCH  17  28
ENDBRANCH  11  14
ENDBRANCH   1  10
TORSDOF 6
ENDMDL
