MODEL 1
REMARK VINA RESULT:      -9.7      0.000      0.000
REMARK  10 active torsions:
REMARK  status: ('A' for Active; 'I' for Inactive)
REMARK    1  A    between atoms: C_2  and  N_3 
REMARK    2  A    between atoms: C_4  and  C_5 
REMARK    3  A    between atoms: C_5  and  O_6 
REMARK    4  A    between atoms: N_8  and  C_9 
REMARK    5  A    between atoms: C_11  and  O_12 
REMARK    6  A    between atoms: O_12  and  C_13 
REMARK    7  A    between atoms: C_13  and  C_15 
REMARK    8  A    between atoms: C_19  and  C_20 
REMARK       I    between atoms: C_20  and  N_22 
REMARK    9  A    between atoms: N_22  and  C_23 
REMARK   10  A    between atoms: C_29  and  C_30 
ROOT
ATOM      1  C   UNL d   1     -26.558  23.640  23.783  0.00  0.00     0.197 A 
ATOM      2  N   UNL d   1     -25.648  23.193  22.929  0.00  0.00    -0.201 NA
ATOM      3  C   UNL d   1     -24.449  23.741  22.842  0.00  0.00     0.183 A 
ATOM      4  C   UNL d   1     -24.099  24.824  23.662  0.00  0.00     0.088 A 
ATOM      5  C   UNL d   1     -25.040  25.313  24.581  0.00  0.00     0.068 A 
ATOM      6  C   UNL d   1     -26.283  24.713  24.631  0.00  0.00     0.165 A 
ATOM      7  F   UNL d   1     -27.221  25.155  25.497  0.00  0.00    -0.202 F 
ENDROOT
BRANCH   4   8
ATOM      8  C   UNL d   1     -22.761  25.434  23.566  0.00  0.00     0.260 C 
ATOM      9  O   UNL d   1     -22.597  26.434  22.893  0.00  0.00    -0.267 OA
ATOM     10  N   UNL d   1     -21.721  24.884  24.224  0.00  0.00    -0.320 N 
ATOM     11  H   UNL d   1     -21.866  24.130  24.816  0.00  0.00     0.169 HD
BRANCH  10  12
ATOM     12  C   UNL d   1     -20.434  25.403  24.053  0.00  0.00     0.071 A 
ATOM     13  C   UNL d   1     -19.652  25.007  22.976  0.00  0.00     0.125 A 
ATOM     14  N   UNL d   1     -18.436  25.490  22.814  0.00  0.00    -0.257 NA
ATOM     15  C   UNL d   1     -17.917  26.363  23.655  0.00  0.00     0.117 A 
ATOM     16  C   UNL d   1     -18.636  26.810  24.748  0.00  0.00     0.028 A 
ATOM     17  C   UNL d   1     -19.918  26.329  24.957  0.00  0.00    -0.032 A 
ATOM     18  C   UNL d   1     -20.734  26.792  26.138  0.00  0.00     0.050 C 
BRANCH  13  19
ATOM     19  C   UNL d   1     -20.196  24.010  21.986  0.00  0.00     0.407 C 
ATOM     20  F   UNL d   1     -19.273  23.829  20.950  0.00  0.00    -0.207 F 
ATOM     21  F   UNL d   1     -20.420  22.787  22.629  0.00  0.00    -0.207 F 
ENDBRANCH  13  19
ENDBRANCH  10  12
ENDBRANCH   4   8
BRANCH   3  22
ATOM     22  O   UNL d   1     -23.551  23.253  21.954  0.00  0.00    -0.319 OA
BRANCH  22  23
ATOM     23  C   UNL d   1     -23.875  23.375  20.568  0.00  0.00     0.234 C 
ATOM     24  C   UNL d   1     -22.630  23.800  19.787  0.00  0.00     0.049 C 
BRANCH  23  25
ATOM     25  C   UNL d   1     -24.373  22.028  20.040  0.00  0.00     0.413 C 
ATOM     26  F   UNL d   1     -24.180  21.044  21.016  0.00  0.00    -0.168 F 
ATOM     27  F   UNL d   1     -25.735  22.121  19.733  0.00  0.00    -0.168 F 
ATOM     28  F   UNL d   1     -23.658  21.686  18.886  0.00  0.00    -0.168 F 
ENDBRANCH  23  25
ENDBRANCH  22  23
ENDBRANCH   3  22
BRANCH   1  29
ATOM     29  N   UNL d   1     -27.806  23.027  23.836  0.00  0.00    -0.159 N 
ATOM     30  N   UNL d   1     -28.828  23.137  22.882  0.00  0.00    -0.145 NA
ATOM     31  C   UNL d   1     -29.830  22.422  23.280  0.00  0.00     0.154 A 
ATOM     32  N   UNL d   1     -29.510  21.841  24.482  0.00  0.00    -0.283 N 
ATOM     33  C   UNL d   1     -28.261  22.220  24.817  0.00  0.00     0.352 A 
ATOM     34  O   UNL d   1     -27.653  21.893  25.820  0.00  0.00    -0.244 OA
BRANCH  31  35
ATOM     35  C   UNL d   1     -31.137  22.259  22.547  0.00  0.00     0.244 C 
BRANCH  35  36
ATOM     36  O   UNL d   1     -30.911  22.363  21.140  0.00  0.00    -0.393 OA
ATOM     37  H   UNL d   1     -29.991  22.217  20.878  0.00  0.00     0.209 HD
ENDBRANCH  35  36
ENDBRANCH  31  35
BRANCH  32  38
ATOM     38  C   UNL d   1     -30.379  20.960  25.267  0.00  0.00     0.131 C 
ATOM     39  C   UNL d   1     -31.580  21.757  25.784  0.00  0.00     0.027 C 
ENDBRANCH  32  38
ENDBRANCH   1  29
TORSDOF 10
ENDMDL
