MODEL 1
REMARK VINA RESULT:     -11.5      0.000      0.000
REMARK  5 active torsions:
REMARK  status: ('A' for Active; 'I' for Inactive)
REMARK    1  A    between atoms: C_2  and  C_15 
REMARK    2  A    between atoms: C_3  and  C_4 
REMARK       I    between atoms: C_15  and  N_17 
REMARK    3  A    between atoms: N_17  and  C_18 
REMARK    4  A    between atoms: C_24  and  C_25 
REMARK    5  A    between atoms: C_25  and  O_27 
ROOT
ATOM      1  C   UNL d   1     -28.354  22.354  23.378  0.00  0.00     0.251 C 
ATOM      2  O   UNL d   1     -28.487  21.619  22.416  0.00  0.00    -0.268 OA
ATOM      3  N   UNL d   1     -29.422  22.675  24.135  0.00  0.00    -0.322 N 
ATOM      4  H   UNL d   1     -29.329  23.312  24.860  0.00  0.00     0.169 HD
ENDROOT
BRANCH   1   5
ATOM      5  C   UNL d   1     -27.035  22.890  23.711  0.00  0.00     0.007 C 
ATOM      6  C   UNL d   1     -26.642  23.082  25.153  0.00  0.00     0.054 C 
ATOM      7  C   UNL d   1     -26.169  23.212  22.727  0.00  0.00     0.027 C 
BRANCH   7   8
ATOM      8  C   UNL d   1     -24.801  23.634  23.060  0.00  0.00     0.004 A 
ATOM      9  C   UNL d   1     -24.565  24.939  23.484  0.00  0.00     0.137 A 
ATOM     10  C   UNL d   1     -23.254  25.332  23.801  0.00  0.00     0.014 A 
ATOM     11  F   UNL d   1     -25.585  25.817  23.592  0.00  0.00    -0.204 F 
ATOM     12  C   UNL d   1     -22.195  24.395  23.682  0.00  0.00    -0.023 A 
ATOM     13  C   UNL d   1     -22.973  26.639  24.235  0.00  0.00     0.015 A 
ATOM     14  C   UNL d   1     -22.468  23.084  23.250  0.00  0.00     0.013 A 
ATOM     15  C   UNL d   1     -20.887  24.794  24.000  0.00  0.00     0.012 A 
ATOM     16  C   UNL d   1     -23.739  22.715  22.952  0.00  0.00     0.015 A 
ATOM     17  C   UNL d   1     -20.651  26.070  24.417  0.00  0.00     0.001 A 
ATOM     18  C   UNL d   1     -21.691  26.989  24.534  0.00  0.00     0.001 A 
ENDBRANCH   7   8
ENDBRANCH   1   5
BRANCH   3  19
ATOM     19  C   UNL d   1     -30.659  22.090  23.876  0.00  0.00     0.052 A 
ATOM     20  C   UNL d   1     -31.235  21.218  24.811  0.00  0.00     0.067 A 
ATOM     21  C   UNL d   1     -32.475  20.632  24.537  0.00  0.00     0.062 A 
ATOM     22  C   UNL d   1     -33.126  20.924  23.357  0.00  0.00     0.117 A 
ATOM     23  C   UNL d   1     -32.553  21.789  22.435  0.00  0.00     0.044 A 
ATOM     24  F   UNL d   1     -34.327  20.362  23.095  0.00  0.00    -0.206 F 
ATOM     25  C   UNL d   1     -31.327  22.368  22.691  0.00  0.00     0.034 A 
BRANCH  20  26
ATOM     26  C   UNL d   1     -30.535  20.914  26.072  0.00  0.00     0.178 C 
ATOM     27  O   UNL d   1     -30.231  21.813  26.830  0.00  0.00    -0.646 OA
BRANCH  26  28
ATOM     28  O   UNL d   1     -30.227  19.639  26.382  0.00  0.00    -0.773 OA
ATOM     29  H   UNL d   1     -30.434  19.343  27.279  0.00  0.00     0.167 HD
ENDBRANCH  26  28
ENDBRANCH  20  26
ENDBRANCH   3  19
TORSDOF 5
ENDMDL
