MODEL 1
REMARK VINA RESULT:      -9.2      0.000      0.000
REMARK  5 active torsions:
REMARK  status: ('A' for Active; 'I' for Inactive)
REMARK    1  A    between atoms: C_7  and  N_8 
REMARK    2  A    between atoms: C_10  and  C_11 
REMARK    3  A    between atoms: C_16  and  C_17 
REMARK    4  A    between atoms: C_21  and  C_22 
REMARK    5  A    between atoms: C_22  and  O_24 
ROOT
ATOM      1  N   UNL d   1     -23.896  23.711  22.129  0.00  0.00    -0.288 N 
ATOM      2  C   UNL d   1     -24.484  24.408  23.149  0.00  0.00     0.109 A 
ATOM      3  C   UNL d   1     -25.776  24.250  23.476  0.00  0.00    -0.027 A 
ATOM      4  C   UNL d   1     -26.597  23.299  22.722  0.00  0.00    -0.011 A 
ATOM      5  C   UNL d   1     -27.943  23.093  23.019  0.00  0.00     0.030 A 
ATOM      6  C   UNL d   1     -28.672  22.178  22.271  0.00  0.00     0.034 A 
ATOM      7  C   UNL d   1     -28.063  21.467  21.227  0.00  0.00     0.130 A 
ATOM      8  F   UNL d   1     -28.789  20.585  20.506  0.00  0.00    -0.205 F 
ATOM      9  C   UNL d   1     -26.745  21.660  20.928  0.00  0.00     0.061 A 
ATOM     10  C   UNL d   1     -25.992  22.576  21.667  0.00  0.00     0.046 A 
ATOM     11  C   UNL d   1     -24.574  22.817  21.384  0.00  0.00     0.263 A 
ATOM     12  O   UNL d   1     -24.015  22.216  20.485  0.00  0.00    -0.267 OA
ENDROOT
BRANCH   6  13
ATOM     13  C   UNL d   1     -30.105  21.951  22.578  0.00  0.00     0.087 A 
ATOM     14  N   UNL d   1     -31.123  21.989  21.693  0.00  0.00    -0.230 NA
ATOM     15  C   UNL d   1     -32.241  21.742  22.318  0.00  0.00     0.135 A 
ATOM     16  N   UNL d   1     -31.977  21.536  23.627  0.00  0.00    -0.345 N 
ATOM     17  C   UNL d   1     -30.628  21.661  23.798  0.00  0.00     0.124 A 
ATOM     18  C   UNL d   1     -32.958  21.228  24.670  0.00  0.00     0.157 C 
BRANCH  15  19
ATOM     19  C   UNL d   1     -33.606  21.692  21.682  0.00  0.00     0.183 C 
ATOM     20  C   UNL d   1     -34.034  20.234  21.505  0.00  0.00     0.047 C 
BRANCH  19  21
ATOM     21  O   UNL d   1     -33.560  22.332  20.404  0.00  0.00    -0.388 OA
ATOM     22  H   UNL d   1     -33.156  23.210  20.419  0.00  0.00     0.210 HD
ENDBRANCH  19  21
ENDBRANCH  15  19
ENDBRANCH   6  13
BRANCH   3  23
ATOM     23  C   UNL d   1     -26.376  25.042  24.608  0.00  0.00     0.013 C 
ATOM     24  C   UNL d   1     -26.726  24.099  25.760  0.00  0.00     0.015 C 
ATOM     25  C   UNL d   1     -25.364  26.085  25.093  0.00  0.00     0.015 C 
ENDBRANCH   3  23
BRANCH   1  26
ATOM     26  C   UNL d   1     -22.542  23.935  21.851  0.00  0.00     0.048 A 
ATOM     27  C   UNL d   1     -21.566  23.453  22.712  0.00  0.00    -0.035 A 
ATOM     28  C   UNL d   1     -21.962  22.688  23.949  0.00  0.00     0.050 C 
ATOM     29  C   UNL d   1     -20.231  23.675  22.436  0.00  0.00     0.009 A 
ATOM     30  C   UNL d   1     -19.867  24.377  21.301  0.00  0.00     0.001 A 
ATOM     31  C   UNL d   1     -20.837  24.858  20.441  0.00  0.00     0.002 A 
ATOM     32  C   UNL d   1     -22.173  24.634  20.709  0.00  0.00     0.030 A 
ENDBRANCH   1  26
TORSDOF 5
ENDMDL
