MODEL 1
REMARK VINA RESULT:     -10.3      0.000      0.000
REMARK  7 active torsions:
REMARK  status: ('A' for Active; 'I' for Inactive)
REMARK    1  A    between atoms: C_2  and  C_3 
REMARK    2  A    between atoms: N_5  and  C_6 
REMARK    3  A    between atoms: C_9  and  C_10 
REMARK       I    between atoms: C_10  and  N_12 
REMARK    4  A    between atoms: N_12  and  C_13 
REMARK    5  A    between atoms: C_21  and  O_22 
REMARK    6  A    between atoms: O_22  and  C_23 
REMARK    7  A    between atoms: C_23  and  C_25 
ROOT
ATOM      1  C   UNL d   1     -26.916  23.461  23.824  0.00  0.00     0.066 A 
ATOM      2  C   UNL d   1     -26.622  24.590  24.584  0.00  0.00     0.033 A 
ATOM      3  C   UNL d   1     -25.396  25.182  24.493  0.00  0.00     0.022 A 
ATOM      4  C   UNL d   1     -24.425  24.657  23.635  0.00  0.00     0.065 A 
ATOM      5  C   UNL d   1     -24.716  23.520  22.867  0.00  0.00     0.087 A 
ATOM      6  C   UNL d   1     -25.962  22.924  22.970  0.00  0.00     0.069 A 
ENDROOT
BRANCH   4   7
ATOM      7  C   UNL d   1     -23.102  25.296  23.537  0.00  0.00     0.259 C 
ATOM      8  O   UNL d   1     -22.997  26.407  23.054  0.00  0.00    -0.267 OA
ATOM      9  N   UNL d   1     -22.007  24.649  23.981  0.00  0.00    -0.318 N 
ATOM     10  H   UNL d   1     -22.077  23.731  24.287  0.00  0.00     0.169 HD
BRANCH   9  11
ATOM     11  C   UNL d   1     -20.766  25.300  24.000  0.00  0.00     0.113 A 
ATOM     12  C   UNL d   1     -20.430  26.128  25.064  0.00  0.00     0.146 A 
ATOM     13  C   UNL d   1     -19.204  26.771  25.078  0.00  0.00     0.045 A 
ATOM     14  F   UNL d   1     -21.299  26.307  26.083  0.00  0.00    -0.204 F 
ATOM     15  C   UNL d   1     -18.315  26.588  24.035  0.00  0.00     0.006 A 
ATOM     16  C   UNL d   1     -18.645  25.765  22.975  0.00  0.00     0.045 A 
ATOM     17  C   UNL d   1     -19.866  25.115  22.956  0.00  0.00     0.146 A 
ATOM     18  F   UNL d   1     -20.186  24.307  21.922  0.00  0.00    -0.204 F 
ENDBRANCH   9  11
ENDBRANCH   4   7
BRANCH   5  19
ATOM     19  O   UNL d   1     -23.780  23.002  22.031  0.00  0.00    -0.336 OA
BRANCH  19  20
ATOM     20  C   UNL d   1     -23.946  23.255  20.634  0.00  0.00     0.232 C 
ATOM     21  C   UNL d   1     -22.598  23.633  20.020  0.00  0.00     0.049 C 
BRANCH  20  22
ATOM     22  C   UNL d   1     -24.484  21.997  19.950  0.00  0.00     0.413 C 
ATOM     23  F   UNL d   1     -24.244  20.884  20.763  0.00  0.00    -0.168 F 
ATOM     24  F   UNL d   1     -25.861  22.133  19.741  0.00  0.00    -0.168 F 
ATOM     25  F   UNL d   1     -23.841  21.824  18.720  0.00  0.00    -0.168 F 
ENDBRANCH  20  22
ENDBRANCH  19  20
ENDBRANCH   5  19
BRANCH   1  26
ATOM     26  N   UNL d   1     -28.174  22.863  23.924  0.00  0.00    -0.181 N 
ATOM     27  N   UNL d   1     -29.233  22.997  23.016  0.00  0.00    -0.149 NA
ATOM     28  C   UNL d   1     -30.230  22.295  23.451  0.00  0.00     0.130 A 
ATOM     29  N   UNL d   1     -29.865  21.693  24.632  0.00  0.00    -0.289 N 
ATOM     30  C   UNL d   1     -28.596  22.050  24.915  0.00  0.00     0.351 A 
ATOM     31  C   UNL d   1     -30.710  20.815  25.442  0.00  0.00     0.162 C 
ATOM     32  O   UNL d   1     -27.949  21.701  25.886  0.00  0.00    -0.244 OA
BRANCH  28  33
ATOM     33  C   UNL d   1     -31.569  22.160  22.776  0.00  0.00     0.076 C 
ATOM     34  C   UNL d   1     -31.378  22.163  21.258  0.00  0.00     0.013 C 
ENDBRANCH  28  33
ENDBRANCH   1  26
TORSDOF 7
ENDMDL
