MODEL 1
REMARK VINA RESULT:      -9.7      0.000      0.000
REMARK  10 active torsions:
REMARK  status: ('A' for Active; 'I' for Inactive)
REMARK    1  A    between atoms: C_2  and  N_3 
REMARK    2  A    between atoms: C_4  and  C_5 
REMARK    3  A    between atoms: C_5  and  O_6 
REMARK    4  A    between atoms: N_8  and  C_9 
REMARK    5  A    between atoms: C_11  and  O_12 
REMARK    6  A    between atoms: O_12  and  C_13 
REMARK    7  A    between atoms: C_13  and  C_15 
REMARK    8  A    between atoms: C_19  and  C_20 
REMARK       I    between atoms: C_20  and  N_22 
REMARK    9  A    between atoms: N_22  and  C_23 
REMARK   10  A    between atoms: C_27  and  O_28 
ROOT
ATOM      1  C   UNL d   1     -26.673  23.347  23.577  0.00  0.00     0.104 A 
ATOM      2  C   UNL d   1     -25.789  22.847  22.630  0.00  0.00     0.073 A 
ATOM      3  C   UNL d   1     -24.529  23.404  22.497  0.00  0.00     0.087 A 
ATOM      4  C   UNL d   1     -24.144  24.466  23.329  0.00  0.00     0.068 A 
ATOM      5  C   UNL d   1     -25.039  24.960  24.284  0.00  0.00     0.064 A 
ATOM      6  C   UNL d   1     -26.292  24.404  24.405  0.00  0.00     0.146 A 
ATOM      7  F   UNL d   1     -27.156  24.881  25.327  0.00  0.00    -0.204 F 
ENDROOT
BRANCH   4   8
ATOM      8  C   UNL d   1     -22.803  25.060  23.197  0.00  0.00     0.259 C 
ATOM      9  O   UNL d   1     -22.646  26.066  22.531  0.00  0.00    -0.267 OA
ATOM     10  N   UNL d   1     -21.748  24.489  23.812  0.00  0.00    -0.319 N 
ATOM     11  H   UNL d   1     -21.857  23.642  24.273  0.00  0.00     0.169 HD
BRANCH  10  12
ATOM     12  C   UNL d   1     -20.496  25.119  23.788  0.00  0.00     0.096 A 
ATOM     13  C   UNL d   1     -20.179  26.071  24.749  0.00  0.00     0.066 A 
ATOM     14  C   UNL d   1     -18.943  26.691  24.724  0.00  0.00     0.062 A 
ATOM     15 CL   UNL d   1     -21.332  26.481  25.979  0.00  0.00    -0.082 Cl
ATOM     16  C   UNL d   1     -18.022  26.364  23.741  0.00  0.00     0.070 A 
ATOM     17  C   UNL d   1     -18.337  25.413  22.781  0.00  0.00     0.081 A 
ATOM     18  C   UNL d   1     -19.569  24.787  22.807  0.00  0.00     0.147 A 
ATOM     19  F   UNL d   1     -19.874  23.857  21.876  0.00  0.00    -0.204 F 
BRANCH  16  20
ATOM     20  O   UNL d   1     -16.808  26.975  23.718  0.00  0.00    -0.361 OA
ATOM     21  H   UNL d   1     -16.060  26.364  23.664  0.00  0.00     0.217 HD
ENDBRANCH  16  20
ENDBRANCH  10  12
ENDBRANCH   4   8
BRANCH   3  22
ATOM     22  O   UNL d   1     -23.666  22.920  21.569  0.00  0.00    -0.336 OA
BRANCH  22  23
ATOM     23  C   UNL d   1     -23.784  23.436  20.242  0.00  0.00     0.232 C 
ATOM     24  C   UNL d   1     -22.398  23.825  19.721  0.00  0.00     0.049 C 
BRANCH  23  25
ATOM     25  C   UNL d   1     -24.390  22.367  19.329  0.00  0.00     0.413 C 
ATOM     26  F   UNL d   1     -25.641  21.985  19.827  0.00  0.00    -0.168 F 
ATOM     27  F   UNL d   1     -24.539  22.886  18.038  0.00  0.00    -0.168 F 
ATOM     28  F   UNL d   1     -23.543  21.255  19.290  0.00  0.00    -0.168 F 
ENDBRANCH  23  25
ENDBRANCH  22  23
ENDBRANCH   3  22
BRANCH   1  29
ATOM     29  N   UNL d   1     -27.946  22.787  23.705  0.00  0.00    -0.178 N 
ATOM     30  N   UNL d   1     -29.006  22.920  22.797  0.00  0.00    -0.147 NA
ATOM     31  C   UNL d   1     -30.018  22.260  23.261  0.00  0.00     0.154 A 
ATOM     32  N   UNL d   1     -29.663  21.688  24.457  0.00  0.00    -0.283 N 
ATOM     33  C   UNL d   1     -28.384  22.018  24.723  0.00  0.00     0.351 A 
ATOM     34  O   UNL d   1     -27.741  21.684  25.701  0.00  0.00    -0.244 OA
BRANCH  31  35
ATOM     35  C   UNL d   1     -31.366  22.140  22.595  0.00  0.00     0.244 C 
BRANCH  35  36
ATOM     36  O   UNL d   1     -31.216  22.298  21.184  0.00  0.00    -0.393 OA
ATOM     37  H   UNL d   1     -30.299  22.249  20.878  0.00  0.00     0.209 HD
ENDBRANCH  35  36
ENDBRANCH  31  35
BRANCH  32  38
ATOM     38  C   UNL d   1     -30.528  20.858  25.301  0.00  0.00     0.131 C 
ATOM     39  C   UNL d   1     -31.655  21.718  25.877  0.00  0.00     0.027 C 
ENDBRANCH  32  38
ENDBRANCH   1  29
TORSDOF 10
ENDMDL
