MODEL 1
REMARK VINA RESULT:     -11.2      0.000      0.000
REMARK  7 active torsions:
REMARK  status: ('A' for Active; 'I' for Inactive)
REMARK    1  A    between atoms: C_2  and  O_3 
REMARK    2  A    between atoms: C_2  and  C_4 
REMARK    3  A    between atoms: C_6  and  C_7 
REMARK    4  A    between atoms: C_12  and  N_13 
REMARK    5  A    between atoms: N_13  and  C_14 
REMARK    6  A    between atoms: C_17  and  C_18 
REMARK    7  A    between atoms: C_23  and  C_24 
ROOT
ATOM      1  C   UNL d   1     -27.147  22.494  23.816  0.00  0.00     0.068 A 
ATOM      2  C   UNL d   1     -26.693  21.755  22.725  0.00  0.00     0.150 A 
ATOM      3  N   UNL d   1     -25.639  22.184  22.054  0.00  0.00    -0.238 NA
ATOM      4  C   UNL d   1     -25.011  23.295  22.412  0.00  0.00     0.159 A 
ATOM      5  N   UNL d   1     -25.412  24.019  23.448  0.00  0.00    -0.238 NA
ATOM      6  C   UNL d   1     -26.461  23.656  24.163  0.00  0.00     0.150 A 
ENDROOT
BRANCH   1   7
ATOM      7  N   UNL d   1     -28.262  22.075  24.548  0.00  0.00    -0.353 N 
ATOM      8  H   UNL d   1     -28.163  21.825  25.480  0.00  0.00     0.166 HD
BRANCH   7   9
ATOM      9  C   UNL d   1     -29.510  22.019  23.942  0.00  0.00     0.049 A 
ATOM     10  C   UNL d   1     -30.610  21.492  24.639  0.00  0.00     0.064 A 
ATOM     11  C   UNL d   1     -31.860  21.442  24.016  0.00  0.00     0.028 A 
ATOM     12  C   UNL d   1     -32.006  21.906  22.727  0.00  0.00    -0.053 A 
ATOM     13  C   UNL d   1     -30.917  22.419  22.040  0.00  0.00     0.010 A 
ATOM     14  C   UNL d   1     -29.677  22.482  22.642  0.00  0.00     0.031 A 
BRANCH  10  15
ATOM     15  C   UNL d   1     -30.447  20.998  26.017  0.00  0.00     0.178 C 
ATOM     16  O   UNL d   1     -30.292  21.784  26.930  0.00  0.00    -0.646 OA
BRANCH  15  17
ATOM     17  O   UNL d   1     -30.472  19.674  26.264  0.00  0.00    -0.773 OA
ATOM     18  H   UNL d   1     -31.317  19.293  26.540  0.00  0.00     0.167 HD
ENDBRANCH  15  17
ENDBRANCH  10  15
BRANCH  12  19
ATOM     19  C   UNL d   1     -33.354  21.849  22.058  0.00  0.00     0.018 A 
ATOM     20  C   UNL d   1     -34.297  20.713  22.463  0.00  0.00     0.010 A 
ATOM     21  C   UNL d   1     -33.616  20.690  21.093  0.00  0.00     0.010 A 
ENDBRANCH  12  19
ENDBRANCH   7   9
ENDBRANCH   1   7
BRANCH   4  22
ATOM     22  C   UNL d   1     -23.828  23.738  21.636  0.00  0.00     0.018 A 
ATOM     23  C   UNL d   1     -22.984  24.724  22.147  0.00  0.00    -0.040 A 
ATOM     24  C   UNL d   1     -21.884  25.132  21.420  0.00  0.00     0.008 A 
ATOM     25  C   UNL d   1     -21.619  24.565  20.186  0.00  0.00     0.001 A 
ATOM     26  C   UNL d   1     -22.452  23.587  19.674  0.00  0.00     0.001 A 
ATOM     27  C   UNL d   1     -23.551  23.166  20.394  0.00  0.00     0.016 A 
BRANCH  23  28
ATOM     28  C   UNL d   1     -23.274  25.342  23.490  0.00  0.00     0.019 A 
ATOM     29  C   UNL d   1     -22.141  26.110  24.173  0.00  0.00     0.010 A 
ATOM     30  C   UNL d   1     -23.324  26.870  23.568  0.00  0.00     0.010 A 
ENDBRANCH  23  28
ENDBRANCH   4  22
TORSDOF 7
ENDMDL
