MODEL 1
REMARK VINA RESULT:      -8.6      0.000      0.000
REMARK  9 active torsions:
REMARK  status: ('A' for Active; 'I' for Inactive)
REMARK    1  A    between atoms: C_2  and  O_3 
REMARK    2  A    between atoms: C_2  and  C_4 
REMARK    3  A    between atoms: C_9  and  C_10 
REMARK    4  A    between atoms: C_10  and  C_11 
REMARK    5  A    between atoms: C_11  and  C_12 
REMARK    6  A    between atoms: C_12  and  C_13 
REMARK    7  A    between atoms: C_13  and  C_14 
REMARK    8  A    between atoms: CA_15  and  C_16 
REMARK    9  A    between atoms: C_16  and  OXT_18 
ROOT
ATOM      1  C   UNL d   1     -29.501  21.869  23.782  0.00  0.00     0.044 A 
ATOM      2  CA  UNL d   1     -30.552  21.579  24.593  0.00  0.00     0.122 A 
ATOM      3  N   UNL d   1     -31.836  21.716  24.111  0.00  0.00    -0.302 N 
ATOM      4  H   UNL d   1     -32.587  21.509  24.689  0.00  0.00     0.171 HD
ATOM      5  C   UNL d   1     -32.067  22.132  22.855  0.00  0.00     0.327 A 
ATOM      6  O   UNL d   1     -33.215  22.241  22.469  0.00  0.00    -0.247 OA
ATOM      7  N   UNL d   1     -31.063  22.432  22.013  0.00  0.00    -0.275 N 
ATOM      8  H   UNL d   1     -31.262  22.731  21.111  0.00  0.00     0.173 HD
ATOM      9  C   UNL d   1     -29.779  22.322  22.414  0.00  0.00     0.258 A 
ATOM     10  O   UNL d   1     -28.868  22.594  21.654  0.00  0.00    -0.267 OA
ENDROOT
BRANCH   1  11
ATOM     11  C   UNL d   1     -28.084  21.736  24.278  0.00  0.00     0.047 C 
BRANCH  11  12
ATOM     12  C   UNL d   1     -27.624  23.068  24.872  0.00  0.00     0.005 C 
BRANCH  12  13
ATOM     13  C   UNL d   1     -26.674  23.762  23.894  0.00  0.00     0.005 C 
BRANCH  13  14
ATOM     14  C   UNL d   1     -25.332  23.026  23.879  0.00  0.00     0.040 C 
BRANCH  14  15
ATOM     15  C   UNL d   1     -24.817  22.950  22.464  0.00  0.00    -0.041 A 
ATOM     16  C   UNL d   1     -23.807  23.816  22.040  0.00  0.00     0.043 A 
ATOM     17  C   UNL d   1     -23.332  23.736  20.730  0.00  0.00     0.019 A 
ATOM     18  C   UNL d   1     -23.870  22.810  19.860  0.00  0.00     0.001 A 
ATOM     19  C   UNL d   1     -24.874  21.959  20.285  0.00  0.00     0.001 A 
ATOM     20  C   UNL d   1     -25.346  22.029  21.584  0.00  0.00     0.008 A 
BRANCH  16  21
ATOM     21  C   UNL d   1     -23.240  24.809  22.975  0.00  0.00     0.176 C 
ATOM     22  O   UNL d   1     -22.247  24.540  23.620  0.00  0.00    -0.646 OA
BRANCH  21  23
ATOM     23  O   UNL d   1     -23.825  26.015  23.113  0.00  0.00    -0.773 OA
ATOM     24  H   UNL d   1     -24.151  26.439  22.308  0.00  0.00     0.167 HD
ENDBRANCH  21  23
ENDBRANCH  16  21
ENDBRANCH  14  15
ENDBRANCH  13  14
ENDBRANCH  12  13
ENDBRANCH  11  12
ENDBRANCH   1  11
BRANCH   2  25
ATOM     25  C   UNL d   1     -30.320  21.118  25.982  0.00  0.00     0.194 C 
ATOM     26  O   UNL d   1     -30.234  21.926  26.884  0.00  0.00    -0.645 OA
BRANCH  25  27
ATOM     27  OXT UNL d   1     -30.203  19.802  26.244  0.00  0.00    -0.772 OA
ATOM     28  HXT UNL d   1     -30.929  19.231  25.957  0.00  0.00     0.167 HD
ENDBRANCH  25  27
ENDBRANCH   2  25
TORSDOF 9
ENDMDL
