MODEL 1
REMARK VINA RESULT:     -10.7      0.000      0.000
REMARK  5 active torsions:
REMARK  status: ('A' for Active; 'I' for Inactive)
REMARK    1  A    between atoms: C_3  and  C_4 
REMARK    2  A    between atoms: C_4  and  N_5 
REMARK       I    between atoms: N_8  and  C_9 
REMARK    3  A    between atoms: C_9  and  C_11 
REMARK    4  A    between atoms: C_22  and  N_23 
REMARK    5  A    between atoms: N_23  and  C_24 
ROOT
ATOM      1  C   UNL d   1     -19.777  24.310  21.956  0.00  0.00     0.051 C 
ATOM      2  C   UNL d   1     -20.335  25.271  22.975  0.00  0.00    -0.027 A 
ATOM      3  C   UNL d   1     -21.654  25.673  22.894  0.00  0.00    -0.019 A 
ATOM      4  C   UNL d   1     -22.168  26.553  23.828  0.00  0.00     0.051 A 
ATOM      5  C   UNL d   1     -21.362  27.036  24.846  0.00  0.00     0.119 A 
ATOM      6  F   UNL d   1     -21.867  27.897  25.757  0.00  0.00    -0.206 F 
ATOM      7  C   UNL d   1     -20.042  26.633  24.934  0.00  0.00     0.072 A 
ATOM      8  C   UNL d   1     -19.523  25.752  23.993  0.00  0.00     0.043 A 
ENDROOT
BRANCH   3   9
ATOM      9  C   UNL d   1     -22.535  25.150  21.789  0.00  0.00     0.311 C 
BRANCH   9  10
ATOM     10  N   UNL d   1     -23.416  24.102  22.319  0.00  0.00     0.095 N 
ATOM     11  C   UNL d   1     -23.829  23.175  21.257  0.00  0.00     0.292 C 
ATOM     12  C   UNL d   1     -24.595  22.001  21.877  0.00  0.00     0.156 C 
ATOM     13  N   UNL d   1     -25.693  22.539  22.695  0.00  0.00    -0.348 N 
ATOM     14  C   UNL d   1     -25.377  23.576  23.689  0.00  0.00     0.156 C 
ATOM     15  C   UNL d   1     -26.956  22.094  22.537  0.00  0.00     0.224 C 
ATOM     16  C   UNL d   1     -24.580  24.687  22.998  0.00  0.00     0.292 C 
ATOM     17  O   UNL d   1     -27.199  21.239  21.712  0.00  0.00    -0.273 OA
BRANCH  15  18
ATOM     18  C   UNL d   1     -28.065  22.660  23.386  0.00  0.00     0.078 C 
ATOM     19  C   UNL d   1     -29.354  22.783  22.554  0.00  0.00     0.014 C 
ATOM     20  C   UNL d   1     -30.409  21.894  23.242  0.00  0.00     0.001 C 
ATOM     21  C   UNL d   1     -29.921  21.788  24.708  0.00  0.00     0.001 C 
ATOM     22  C   UNL d   1     -28.382  21.699  24.550  0.00  0.00     0.014 C 
ENDBRANCH  15  18
ENDBRANCH   9  10
ENDBRANCH   3   9
BRANCH   8  23
ATOM     23  N   UNL d   1     -18.188  25.346  24.076  0.00  0.00    -0.335 N 
ATOM     24  H   UNL d   1     -17.957  24.535  24.555  0.00  0.00     0.168 HD
BRANCH  23  25
ATOM     25  C   UNL d   1     -17.198  26.101  23.478  0.00  0.00     0.172 A 
ATOM     26  S   UNL d   1     -15.971  25.468  22.391  0.00  0.00    -0.050 SA
ATOM     27  C   UNL d   1     -15.280  27.079  22.209  0.00  0.00     0.037 A 
ATOM     28  C   UNL d   1     -16.029  27.970  22.982  0.00  0.00     0.076 A 
ATOM     29  C   UNL d   1     -14.192  27.531  21.467  0.00  0.00     0.021 A 
ATOM     30  N   UNL d   1     -17.044  27.372  23.636  0.00  0.00    -0.223 NA
ATOM     31  C   UNL d   1     -15.655  29.330  22.989  0.00  0.00     0.033 A 
ATOM     32  C   UNL d   1     -14.581  29.759  22.252  0.00  0.00     0.002 A 
ATOM     33  C   UNL d   1     -13.845  28.863  21.489  0.00  0.00     0.002 A 
ENDBRANCH  23  25
ENDBRANCH   8  23
TORSDOF 5
ENDMDL
