MODEL 1
REMARK VINA RESULT:     -12.3      0.000      0.000
REMARK  7 active torsions:
REMARK  status: ('A' for Active; 'I' for Inactive)
REMARK    1  A    between atoms: C_2  and  N_4 
REMARK    2  A    between atoms: N_4  and  C_5 
REMARK    3  A    between atoms: C_5  and  C_6 
REMARK    4  A    between atoms: C_10  and  C_11 
REMARK    5  A    between atoms: C_16  and  C_17 
REMARK    6  A    between atoms: C_19  and  C_20 
REMARK    7  A    between atoms: C_20  and  O_22 
ROOT
ATOM      1  C   UNL d   1     -24.349  23.441  22.534  0.00  0.00     0.058 A 
ATOM      2  C   UNL d   1     -25.121  24.160  23.448  0.00  0.00     0.170 A 
ATOM      3  F   UNL d   1     -24.584  25.212  24.105  0.00  0.00    -0.202 F 
ATOM      4  C   UNL d   1     -26.433  23.796  23.682  0.00  0.00     0.170 A 
ATOM      5  F   UNL d   1     -27.179  24.491  24.567  0.00  0.00    -0.202 F 
ATOM      6  C   UNL d   1     -26.987  22.709  23.005  0.00  0.00     0.058 A 
ATOM      7  C   UNL d   1     -26.214  21.987  22.094  0.00  0.00     0.170 A 
ATOM      8  F   UNL d   1     -26.748  20.932  21.441  0.00  0.00    -0.202 F 
ATOM      9  C   UNL d   1     -24.903  22.355  21.855  0.00  0.00     0.170 A 
ATOM     10  F   UNL d   1     -24.156  21.658  20.970  0.00  0.00    -0.202 F 
ENDROOT
BRANCH   6  11
ATOM     11  C   UNL d   1     -28.395  22.318  23.256  0.00  0.00    -0.016 A 
ATOM     12  C   UNL d   1     -29.355  22.536  22.278  0.00  0.00     0.048 A 
ATOM     13  C   UNL d   1     -30.686  22.168  22.508  0.00  0.00     0.111 A 
ATOM     14  C   UNL d   1     -31.040  21.579  23.734  0.00  0.00     0.101 A 
ATOM     15  N   UNL d   1     -31.810  22.255  21.757  0.00  0.00    -0.130 NA
ATOM     16  C   UNL d   1     -30.062  21.362  24.719  0.00  0.00     0.069 A 
ATOM     17  N   UNL d   1     -32.386  21.334  23.665  0.00  0.00    -0.253 N 
ATOM     18  C   UNL d   1     -28.744  21.733  24.475  0.00  0.00     0.033 A 
ATOM     19  N   UNL d   1     -32.813  21.778  22.405  0.00  0.00    -0.065 NA
ATOM     20  C   UNL d   1     -33.217  20.721  24.704  0.00  0.00     0.182 C 
BRANCH  16  21
ATOM     21  C   UNL d   1     -30.431  20.745  26.006  0.00  0.00     0.178 C 
ATOM     22  O   UNL d   1     -30.639  21.444  26.978  0.00  0.00    -0.646 OA
BRANCH  21  23
ATOM     23  O   UNL d   1     -30.537  19.404  26.105  0.00  0.00    -0.773 OA
ATOM     24  H   UNL d   1     -29.798  18.880  25.767  0.00  0.00     0.167 HD
ENDBRANCH  21  23
ENDBRANCH  16  21
ENDBRANCH   6  11
BRANCH   1  25
ATOM     25  C   UNL d   1     -22.941  23.832  22.283  0.00  0.00    -0.019 A 
ATOM     26  C   UNL d   1     -22.502  24.069  20.981  0.00  0.00     0.012 A 
ATOM     27  C   UNL d   1     -21.191  24.433  20.753  0.00  0.00     0.001 A 
ATOM     28  C   UNL d   1     -20.311  24.562  21.812  0.00  0.00     0.009 A 
ATOM     29  C   UNL d   1     -20.741  24.328  23.107  0.00  0.00    -0.030 A 
ATOM     30  C   UNL d   1     -22.052  23.970  23.348  0.00  0.00     0.021 A 
BRANCH  29  31
ATOM     31  C   UNL d   1     -19.778  24.472  24.257  0.00  0.00     0.308 C 
BRANCH  31  32
ATOM     32  N   UNL d   1     -19.780  25.864  24.727  0.00  0.00     0.091 N 
ATOM     33  H   UNL d   1     -19.797  26.508  23.950  0.00  0.00     0.316 HD
BRANCH  32  34
ATOM     34  C   UNL d   1     -20.905  26.110  25.639  0.00  0.00     0.212 C 
ATOM     35  C   UNL d   1     -20.367  26.432  27.036  0.00  0.00     0.042 C 
ATOM     36  C   UNL d   1     -21.730  27.292  25.125  0.00  0.00     0.042 C 
ENDBRANCH  32  34
ENDBRANCH  31  32
ENDBRANCH  29  31
ENDBRANCH   1  25
TORSDOF 7
ENDMDL
