MODEL 1
REMARK VINA RESULT:      -9.8      0.000      0.000
REMARK  8 active torsions:
REMARK  status: ('A' for Active; 'I' for Inactive)
REMARK    1  A    between atoms: C_2  and  O_3 
REMARK    2  A    between atoms: C_2  and  C_31 
REMARK    3  A    between atoms: O_3  and  C_4 
REMARK    4  A    between atoms: C_6  and  N_7 
REMARK    5  A    between atoms: C_9  and  C_10 
REMARK    6  A    between atoms: C_10  and  O_11 
REMARK    7  A    between atoms: C_19  and  C_20 
REMARK       I    between atoms: C_20  and  N_22 
REMARK    8  A    between atoms: N_22  and  C_23 
ROOT
ATOM      1  C   UNL d   1     -24.398  23.559  22.770  0.00  0.00     0.087 A 
ATOM      2  C   UNL d   1     -25.648  22.979  22.893  0.00  0.00     0.073 A 
ATOM      3  C   UNL d   1     -26.561  23.483  23.810  0.00  0.00     0.104 A 
ATOM      4  C   UNL d   1     -26.222  24.574  24.611  0.00  0.00     0.146 A 
ATOM      5  F   UNL d   1     -27.115  25.059  25.501  0.00  0.00    -0.204 F 
ATOM      6  C   UNL d   1     -24.981  25.158  24.496  0.00  0.00     0.064 A 
ATOM      7  C   UNL d   1     -24.055  24.656  23.574  0.00  0.00     0.068 A 
ENDROOT
BRANCH   7   8
ATOM      8  C   UNL d   1     -22.726  25.279  23.448  0.00  0.00     0.259 C 
ATOM      9  O   UNL d   1     -22.593  26.305  22.809  0.00  0.00    -0.267 OA
ATOM     10  N   UNL d   1     -21.658  24.711  24.040  0.00  0.00    -0.320 N 
ATOM     11  H   UNL d   1     -21.742  23.843  24.463  0.00  0.00     0.169 HD
BRANCH  10  12
ATOM     12  C   UNL d   1     -20.426  25.377  24.047  0.00  0.00     0.079 A 
ATOM     13  C   UNL d   1     -20.167  26.352  25.002  0.00  0.00     0.062 A 
ATOM     14  C   UNL d   1     -18.949  27.006  25.005  0.00  0.00     0.026 A 
ATOM     15 CL   UNL d   1     -21.369  26.748  26.190  0.00  0.00    -0.082 Cl
ATOM     16  C   UNL d   1     -17.990  26.691  24.061  0.00  0.00     0.003 A 
ATOM     17  C   UNL d   1     -18.244  25.721  23.109  0.00  0.00     0.026 A 
ATOM     18  C   UNL d   1     -19.457  25.059  23.103  0.00  0.00     0.062 A 
ATOM     19 CL   UNL d   1     -19.774  23.834  21.913  0.00  0.00    -0.082 Cl
ENDBRANCH  10  12
ENDBRANCH   7   8
BRANCH   1  20
ATOM     20  O   UNL d   1     -23.505  23.066  21.874  0.00  0.00    -0.336 OA
BRANCH  20  21
ATOM     21  C   UNL d   1     -23.776  23.302  20.492  0.00  0.00     0.232 C 
ATOM     22  C   UNL d   1     -22.476  23.672  19.774  0.00  0.00     0.049 C 
BRANCH  21  23
ATOM     23  C   UNL d   1     -24.363  22.036  19.864  0.00  0.00     0.413 C 
ATOM     24  F   UNL d   1     -23.743  21.797  18.632  0.00  0.00    -0.168 F 
ATOM     25  F   UNL d   1     -24.142  20.948  20.715  0.00  0.00    -0.168 F 
ATOM     26  F   UNL d   1     -25.737  22.205  19.669  0.00  0.00    -0.168 F 
ENDBRANCH  21  23
ENDBRANCH  20  21
ENDBRANCH   1  20
BRANCH   3  27
ATOM     27  N   UNL d   1     -27.819  22.892  23.936  0.00  0.00    -0.178 N 
ATOM     28  C   UNL d   1     -28.262  22.168  24.987  0.00  0.00     0.351 A 
ATOM     29  N   UNL d   1     -29.525  21.786  24.710  0.00  0.00    -0.287 N 
ATOM     30  O   UNL d   1     -27.636  21.911  25.999  0.00  0.00    -0.244 OA
ATOM     31  C   UNL d   1     -29.861  22.272  23.469  0.00  0.00     0.154 A 
ATOM     32  C   UNL d   1     -30.388  20.985  25.580  0.00  0.00     0.163 C 
ATOM     33  N   UNL d   1     -28.856  22.934  22.993  0.00  0.00    -0.147 NA
BRANCH  31  34
ATOM     34  C   UNL d   1     -31.184  22.067  22.777  0.00  0.00     0.244 C 
BRANCH  34  35
ATOM     35  O   UNL d   1     -32.183  22.867  23.413  0.00  0.00    -0.393 OA
ATOM     36  H   UNL d   1     -33.018  22.404  23.566  0.00  0.00     0.209 HD
ENDBRANCH  34  35
ENDBRANCH  31  34
ENDBRANCH   3  27
TORSDOF 8
ENDMDL
