MODEL 1
REMARK VINA RESULT:     -10.5      0.000      0.000
REMARK  6 active torsions:
REMARK  status: ('A' for Active; 'I' for Inactive)
REMARK    1  A    between atoms: C_2  and  O_3 
REMARK    2  A    between atoms: C_2  and  C_30 
REMARK    3  A    between atoms: O_3  and  C_4 
REMARK    4  A    between atoms: C_6  and  N_7 
REMARK    5  A    between atoms: C_20  and  C_21 
REMARK       I    between atoms: C_21  and  N_23 
REMARK    6  A    between atoms: N_23  and  C_24 
ROOT
ATOM      1  C   UNL d   1     -24.703  23.353  22.662  0.00  0.00     0.087 A 
ATOM      2  C   UNL d   1     -25.962  22.806  22.839  0.00  0.00     0.073 A 
ATOM      3  C   UNL d   1     -26.821  23.332  23.794  0.00  0.00     0.104 A 
ATOM      4  C   UNL d   1     -26.414  24.404  24.588  0.00  0.00     0.146 A 
ATOM      5  F   UNL d   1     -27.253  24.907  25.521  0.00  0.00    -0.204 F 
ATOM      6  C   UNL d   1     -25.162  24.951  24.425  0.00  0.00     0.064 A 
ATOM      7  C   UNL d   1     -24.293  24.431  23.460  0.00  0.00     0.068 A 
ENDROOT
BRANCH   3   8
ATOM      8  N   UNL d   1     -28.092  22.781  23.965  0.00  0.00    -0.178 N 
ATOM      9  C   UNL d   1     -28.498  22.011  24.998  0.00  0.00     0.351 A 
ATOM     10  N   UNL d   1     -29.793  21.717  24.795  0.00  0.00    -0.284 N 
ATOM     11  O   UNL d   1     -27.816  21.649  25.940  0.00  0.00    -0.244 OA
ATOM     12  C   UNL d   1     -30.182  22.280  23.597  0.00  0.00     0.131 A 
ATOM     13  C   UNL d   1     -30.683  20.952  25.675  0.00  0.00     0.135 C 
ATOM     14  N   UNL d   1     -29.184  22.923  23.095  0.00  0.00    -0.149 NA
ATOM     15  C   UNL d   1     -31.567  22.131  23.012  0.00  0.00     0.081 C 
ATOM     16  C   UNL d   1     -32.512  21.685  24.135  0.00  0.00     0.009 C 
ATOM     17  C   UNL d   1     -31.895  20.485  24.860  0.00  0.00     0.021 C 
ENDBRANCH   3   8
BRANCH   1  18
ATOM     18  O   UNL d   1     -23.865  22.844  21.724  0.00  0.00    -0.336 OA
BRANCH  18  19
ATOM     19  C   UNL d   1     -23.954  23.393  20.407  0.00  0.00     0.232 C 
ATOM     20  C   UNL d   1     -22.562  23.816  19.936  0.00  0.00     0.049 C 
BRANCH  19  21
ATOM     21  C   UNL d   1     -24.518  22.339  19.451  0.00  0.00     0.413 C 
ATOM     22  F   UNL d   1     -24.595  22.875  18.161  0.00  0.00    -0.168 F 
ATOM     23  F   UNL d   1     -23.678  21.221  19.443  0.00  0.00    -0.168 F 
ATOM     24  F   UNL d   1     -25.796  21.961  19.875  0.00  0.00    -0.168 F 
ENDBRANCH  19  21
ENDBRANCH  18  19
ENDBRANCH   1  18
BRANCH   7  25
ATOM     25  C   UNL d   1     -22.952  25.014  23.282  0.00  0.00     0.259 C 
ATOM     26  O   UNL d   1     -22.815  26.044  22.651  0.00  0.00    -0.267 OA
ATOM     27  N   UNL d   1     -21.876  24.405  23.820  0.00  0.00    -0.323 N 
ATOM     28  H   UNL d   1     -21.992  23.625  24.387  0.00  0.00     0.169 HD
BRANCH  27  29
ATOM     29  C   UNL d   1     -20.592  24.895  23.560  0.00  0.00     0.035 A 
ATOM     30  C   UNL d   1     -20.023  25.839  24.406  0.00  0.00     0.029 A 
ATOM     31  C   UNL d   1     -18.756  26.321  24.147  0.00  0.00     0.002 A 
ATOM     32  C   UNL d   1     -18.054  25.867  23.046  0.00  0.00     0.000 A 
ATOM     33  C   UNL d   1     -18.617  24.928  22.201  0.00  0.00     0.002 A 
ATOM     34  C   UNL d   1     -19.882  24.438  22.458  0.00  0.00     0.029 A 
ENDBRANCH  27  29
ENDBRANCH   7  25
TORSDOF 6
ENDMDL
