MODEL 1
REMARK VINA RESULT:     -11.4      0.000      0.000
REMARK  8 active torsions:
REMARK  status: ('A' for Active; 'I' for Inactive)
REMARK    1  A    between atoms: O_2  and  C_3 
REMARK    2  A    between atoms: C_5  and  C_6 
REMARK    3  A    between atoms: C_8  and  C_9 
REMARK    4  A    between atoms: C_9  and  O_11 
REMARK    5  A    between atoms: C_21  and  O_22 
REMARK    6  A    between atoms: O_22  and  C_23 
REMARK    7  A    between atoms: C_23  and  C_24 
REMARK       I    between atoms: C_24  and  N_26 
REMARK    8  A    between atoms: N_26  and  C_27 
ROOT
ATOM      1  C   UNL d   1     -25.590  23.058  23.037  0.00  0.00     0.102 A 
ATOM      2  C   UNL d   1     -26.943  22.938  23.297  0.00  0.00     0.053 A 
ATOM      3  C   UNL d   1     -27.728  22.091  22.514  0.00  0.00    -0.004 A 
ATOM      4  C   UNL d   1     -27.149  21.375  21.468  0.00  0.00     0.017 A 
ATOM      5  C   UNL d   1     -25.800  21.503  21.209  0.00  0.00     0.040 A 
ATOM      6  C   UNL d   1     -25.017  22.343  21.987  0.00  0.00     0.102 A 
ENDROOT
BRANCH   3   7
ATOM      7  C   UNL d   1     -29.177  21.955  22.793  0.00  0.00     0.069 A 
ATOM      8  N   UNL d   1     -30.031  22.089  21.800  0.00  0.00    -0.247 NA
ATOM      9  C   UNL d   1     -31.348  21.976  21.970  0.00  0.00     0.068 A 
ATOM     10  C   UNL d   1     -31.876  21.713  23.259  0.00  0.00     0.010 A 
ATOM     11  C   UNL d   1     -32.237  22.118  20.888  0.00  0.00     0.032 A 
ATOM     12  C   UNL d   1     -30.948  21.564  24.381  0.00  0.00     0.052 A 
ATOM     13  C   UNL d   1     -33.259  21.599  23.436  0.00  0.00     0.015 A 
ATOM     14  C   UNL d   1     -29.593  21.694  24.109  0.00  0.00     0.051 A 
ATOM     15  C   UNL d   1     -34.089  21.743  22.363  0.00  0.00     0.001 A 
ATOM     16  C   UNL d   1     -33.577  22.002  21.094  0.00  0.00     0.002 A 
BRANCH  12  17
ATOM     17  C   UNL d   1     -31.433  21.289  25.750  0.00  0.00     0.177 C 
ATOM     18  O   UNL d   1     -31.655  22.209  26.512  0.00  0.00    -0.646 OA
BRANCH  17  19
ATOM     19  O   UNL d   1     -31.629  20.018  26.152  0.00  0.00    -0.773 OA
ATOM     20  H   UNL d   1     -32.517  19.785  26.453  0.00  0.00     0.167 HD
ENDBRANCH  17  19
ENDBRANCH  12  17
ENDBRANCH   3   7
BRANCH   1  21
ATOM     21  O   UNL d   1     -24.821  23.877  23.801  0.00  0.00    -0.353 OA
ATOM     22  C   UNL d   1     -25.222  25.246  23.891  0.00  0.00     0.210 C 
ENDBRANCH   1  21
BRANCH   6  23
ATOM     23  O   UNL d   1     -23.689  22.466  21.729  0.00  0.00    -0.339 OA
BRANCH  23  24
ATOM     24  C   UNL d   1     -23.287  23.560  20.901  0.00  0.00     0.278 C 
BRANCH  24  25
ATOM     25  C   UNL d   1     -22.299  24.418  21.648  0.00  0.00     0.246 C 
ATOM     26  O   UNL d   1     -21.752  25.343  21.086  0.00  0.00    -0.271 OA
ATOM     27  N   UNL d   1     -22.023  24.158  22.941  0.00  0.00    -0.325 N 
ATOM     28  H   UNL d   1     -22.403  23.375  23.371  0.00  0.00     0.169 HD
BRANCH  27  29
ATOM     29  C   UNL d   1     -21.190  25.017  23.665  0.00  0.00     0.037 A 
ATOM     30  C   UNL d   1     -21.706  26.177  24.227  0.00  0.00     0.071 A 
ATOM     31  C   UNL d   1     -20.879  27.024  24.942  0.00  0.00     0.118 A 
ATOM     32  C   UNL d   1     -19.539  26.716  25.099  0.00  0.00     0.042 A 
ATOM     33  F   UNL d   1     -21.380  28.154  25.489  0.00  0.00    -0.206 F 
ATOM     34  C   UNL d   1     -19.023  25.561  24.540  0.00  0.00     0.005 A 
ATOM     35  C   UNL d   1     -19.844  24.712  23.825  0.00  0.00     0.029 A 
ENDBRANCH  27  29
ENDBRANCH  24  25
ENDBRANCH  23  24
ENDBRANCH   6  23
TORSDOF 8
ENDMDL
