MODEL 1
REMARK VINA RESULT:     -11.2      0.000      0.000
REMARK  5 active torsions:
REMARK  status: ('A' for Active; 'I' for Inactive)
REMARK    1  A    between atoms: C_2  and  C_14 
REMARK    2  A    between atoms: C_3  and  C_4 
REMARK       I    between atoms: C_14  and  N_16 
REMARK    3  A    between atoms: N_16  and  C_17 
REMARK    4  A    between atoms: C_23  and  C_24 
REMARK    5  A    between atoms: C_24  and  O_26 
ROOT
ATOM      1  C   UNL d   1     -28.430  22.362  23.356  0.00  0.00     0.251 C 
ATOM      2  O   UNL d   1     -28.548  21.602  22.413  0.00  0.00    -0.268 OA
ATOM      3  N   UNL d   1     -29.507  22.690  24.097  0.00  0.00    -0.322 N 
ATOM      4  H   UNL d   1     -29.427  23.349  24.804  0.00  0.00     0.169 HD
ENDROOT
BRANCH   1   5
ATOM      5  C   UNL d   1     -27.118  22.919  23.686  0.00  0.00     0.007 C 
ATOM      6  C   UNL d   1     -26.737  23.151  25.125  0.00  0.00     0.054 C 
ATOM      7  C   UNL d   1     -26.248  23.226  22.701  0.00  0.00     0.023 C 
BRANCH   7   8
ATOM      8  C   UNL d   1     -24.878  23.647  23.034  0.00  0.00    -0.035 A 
ATOM      9  C   UNL d   1     -24.632  24.960  23.409  0.00  0.00     0.023 A 
ATOM     10  C   UNL d   1     -23.325  25.352  23.730  0.00  0.00    -0.025 A 
ATOM     11  C   UNL d   1     -22.273  24.403  23.656  0.00  0.00    -0.026 A 
ATOM     12  C   UNL d   1     -23.036  26.673  24.118  0.00  0.00     0.012 A 
ATOM     13  C   UNL d   1     -22.553  23.080  23.268  0.00  0.00     0.013 A 
ATOM     14  C   UNL d   1     -20.964  24.803  23.973  0.00  0.00     0.012 A 
ATOM     15  C   UNL d   1     -23.824  22.715  22.966  0.00  0.00     0.012 A 
ATOM     16  C   UNL d   1     -20.723  26.090  24.345  0.00  0.00     0.001 A 
ATOM     17  C   UNL d   1     -21.756  27.023  24.417  0.00  0.00     0.001 A 
ENDBRANCH   7   8
ENDBRANCH   1   5
BRANCH   3  18
ATOM     18  C   UNL d   1     -30.735  22.084  23.846  0.00  0.00     0.052 A 
ATOM     19  C   UNL d   1     -31.291  21.203  24.787  0.00  0.00     0.067 A 
ATOM     20  C   UNL d   1     -32.522  20.597  24.522  0.00  0.00     0.062 A 
ATOM     21  C   UNL d   1     -33.186  20.874  23.345  0.00  0.00     0.117 A 
ATOM     22  C   UNL d   1     -32.632  21.746  22.418  0.00  0.00     0.044 A 
ATOM     23  F   UNL d   1     -34.377  20.291  23.091  0.00  0.00    -0.206 F 
ATOM     24  C   UNL d   1     -31.415  22.347  22.665  0.00  0.00     0.034 A 
BRANCH  19  25
ATOM     25  C   UNL d   1     -30.578  20.916  26.045  0.00  0.00     0.178 C 
ATOM     26  O   UNL d   1     -30.277  21.825  26.794  0.00  0.00    -0.646 OA
BRANCH  25  27
ATOM     27  O   UNL d   1     -30.256  19.647  26.362  0.00  0.00    -0.773 OA
ATOM     28  H   UNL d   1     -29.967  19.074  25.639  0.00  0.00     0.167 HD
ENDBRANCH  25  27
ENDBRANCH  19  25
ENDBRANCH   3  18
TORSDOF 5
ENDMDL
