MODEL 1
REMARK VINA RESULT:     -11.2      0.000      0.000
REMARK  7 active torsions:
REMARK  status: ('A' for Active; 'I' for Inactive)
REMARK    1  A    between atoms: C_5  and  N_6 
REMARK    2  A    between atoms: N_6  and  C_7 
REMARK    3  A    between atoms: C_10  and  C_11 
REMARK    4  A    between atoms: C_13  and  O_14 
REMARK    5  A    between atoms: O_14  and  C_15 
REMARK    6  A    between atoms: C_24  and  C_25 
REMARK    7  A    between atoms: C_25  and  O_27 
ROOT
ATOM      1  C   UNL d   1     -25.277  22.450  22.245  0.00  0.00     0.050 A 
ATOM      2  C   UNL d   1     -25.585  23.298  23.308  0.00  0.00     0.033 A 
ATOM      3  C   UNL d   1     -26.815  23.163  23.924  0.00  0.00     0.035 A 
ATOM      4  C   UNL d   1     -27.701  22.188  23.464  0.00  0.00     0.070 A 
ATOM      5  N   UNL d   1     -27.376  21.402  22.447  0.00  0.00    -0.258 NA
ATOM      6  C   UNL d   1     -26.210  21.502  21.842  0.00  0.00     0.146 A 
ENDROOT
BRANCH   1   7
ATOM      7  N   UNL d   1     -24.046  22.551  21.593  0.00  0.00    -0.354 N 
ATOM      8  H   UNL d   1     -23.917  22.127  20.730  0.00  0.00     0.166 HD
BRANCH   7   9
ATOM      9  C   UNL d   1     -23.006  23.259  22.180  0.00  0.00     0.049 A 
ATOM     10  C   UNL d   1     -22.673  23.037  23.510  0.00  0.00     0.031 A 
ATOM     11  C   UNL d   1     -21.634  23.737  24.089  0.00  0.00     0.009 A 
ATOM     12  C   UNL d   1     -20.925  24.675  23.356  0.00  0.00    -0.061 A 
ATOM     13  C   UNL d   1     -19.798  25.437  24.004  0.00  0.00     0.048 C 
ATOM     14  C   UNL d   1     -21.244  24.914  22.037  0.00  0.00     0.027 A 
ATOM     15  C   UNL d   1     -22.289  24.208  21.433  0.00  0.00     0.064 A 
BRANCH  15  16
ATOM     16  C   UNL d   1     -22.635  24.459  20.024  0.00  0.00     0.178 C 
ATOM     17  O   UNL d   1     -22.851  23.525  19.276  0.00  0.00    -0.646 OA
BRANCH  16  18
ATOM     18  O   UNL d   1     -22.713  25.723  19.564  0.00  0.00    -0.773 OA
ATOM     19  H   UNL d   1     -21.912  26.262  19.621  0.00  0.00     0.167 HD
ENDBRANCH  16  18
ENDBRANCH  15  16
ENDBRANCH   7   9
ENDBRANCH   1   7
BRANCH   4  20
ATOM     20  C   UNL d   1     -29.023  22.034  24.117  0.00  0.00     0.034 A 
ATOM     21  C   UNL d   1     -29.101  21.646  25.455  0.00  0.00     0.129 A 
ATOM     22  C   UNL d   1     -30.335  21.506  26.062  0.00  0.00     0.046 A 
ATOM     23  F   UNL d   1     -27.972  21.411  26.158  0.00  0.00    -0.205 F 
ATOM     24  C   UNL d   1     -31.493  21.739  25.344  0.00  0.00     0.040 A 
ATOM     25  C   UNL d   1     -31.423  22.120  24.011  0.00  0.00     0.070 A 
ATOM     26  C   UNL d   1     -30.191  22.268  23.395  0.00  0.00     0.053 A 
BRANCH  25  27
ATOM     27  O   UNL d   1     -32.565  22.348  23.309  0.00  0.00    -0.347 OA
BRANCH  27  28
ATOM     28  C   UNL d   1     -32.909  21.396  22.301  0.00  0.00     0.120 C 
ATOM     29  C   UNL d   1     -33.626  20.208  22.945  0.00  0.00     0.040 C 
ATOM     30  C   UNL d   1     -33.834  22.053  21.274  0.00  0.00     0.040 C 
ENDBRANCH  27  28
ENDBRANCH  25  27
ENDBRANCH   4  20
TORSDOF 7
ENDMDL
