MODEL 1
REMARK VINA RESULT:      -8.5      0.000      0.000
REMARK  6 active torsions:
REMARK  status: ('A' for Active; 'I' for Inactive)
REMARK    1  A    between atoms: C_2  and  C_3 
REMARK    2  A    between atoms: C_7  and  C_8 
REMARK    3  A    between atoms: C_8  and  S_9 
REMARK    4  A    between atoms: N_10  and  C_11 
REMARK    5  A    between atoms: C_14  and  O_15 
REMARK    6  A    between atoms: O_15  and  C_16 
ROOT
ATOM      1  C   UNL d   1     -28.467  22.043  23.126  0.00  0.00     0.058 A 
ATOM      2  C   UNL d   1     -28.755  21.523  24.389  0.00  0.00     0.034 A 
ATOM      3  C   UNL d   1     -30.063  21.437  24.815  0.00  0.00     0.039 A 
ATOM      4  C   UNL d   1     -31.093  21.863  23.989  0.00  0.00     0.078 A 
ATOM      5  C   UNL d   1     -30.812  22.386  22.735  0.00  0.00     0.039 A 
ATOM      6  C   UNL d   1     -29.506  22.475  22.299  0.00  0.00     0.034 A 
ENDROOT
BRANCH   1   7
ATOM      7  N   UNL d   1     -27.169  22.131  22.699  0.00  0.00    -0.241 NA
ATOM      8  C   UNL d   1     -26.322  22.915  23.327  0.00  0.00     0.105 C 
BRANCH   8   9
ATOM      9  C   UNL d   1     -24.923  23.010  22.867  0.00  0.00     0.051 A 
ATOM     10  C   UNL d   1     -24.389  22.573  21.683  0.00  0.00     0.093 A 
ATOM     11  O   UNL d   1     -23.088  22.884  21.723  0.00  0.00    -0.217 OA
ATOM     12  N   UNL d   1     -22.786  23.430  22.757  0.00  0.00    -0.140 NA
ATOM     13  C   UNL d   1     -23.806  23.573  23.550  0.00  0.00     0.163 A 
BRANCH  10  14
ATOM     14  C   UNL d   1     -25.118  21.882  20.560  0.00  0.00     0.064 C 
ATOM     15  C   UNL d   1     -24.595  22.396  19.218  0.00  0.00     0.012 C 
ENDBRANCH  10  14
ENDBRANCH   8   9
BRANCH   8  16
ATOM     16  S   UNL d   1     -26.857  23.853  24.720  0.00  0.00    -0.122 SA
ATOM     17  H   UNL d   1     -27.966  24.517  24.155  0.00  0.00     0.108 HD
ENDBRANCH   8  16
ENDBRANCH   1   7
BRANCH   4  18
ATOM     18  O   UNL d   1     -32.383  21.772  24.411  0.00  0.00    -0.255 OA
BRANCH  18  19
ATOM     19  C   UNL d   1     -33.051  20.528  24.193  0.00  0.00     0.530 C 
ATOM     20  F   UNL d   1     -34.370  20.620  24.649  0.00  0.00    -0.144 F 
ATOM     21  F   UNL d   1     -33.050  20.231  22.825  0.00  0.00    -0.144 F 
ATOM     22  F   UNL d   1     -32.387  19.513  24.890  0.00  0.00    -0.144 F 
ENDBRANCH  18  19
ENDBRANCH   4  18
TORSDOF 6
ENDMDL
