MODEL 1
REMARK VINA RESULT:      -8.7      0.000      0.000
REMARK  6 active torsions:
REMARK  status: ('A' for Active; 'I' for Inactive)
REMARK    1  A    between atoms: C_2  and  O_3 
REMARK    2  A    between atoms: O_3  and  C_4 
REMARK    3  A    between atoms: C_4  and  C_6 
REMARK    4  A    between atoms: C_8  and  N_9 
REMARK    5  A    between atoms: N_9  and  C_10 
REMARK    6  A    between atoms: C_19  and  C_20 
ROOT
ATOM      1  C   UNL d   1     -23.246  23.733  21.017  0.00  0.00     0.108 A 
ATOM      2  S   UNL d   1     -24.035  22.387  20.197  0.00  0.00    -0.044 SA
ATOM      3  C   UNL d   1     -25.070  22.160  21.538  0.00  0.00     0.172 A 
ATOM      4  N   UNL d   1     -24.807  23.030  22.471  0.00  0.00    -0.227 NA
ATOM      5  C   UNL d   1     -23.845  23.885  22.239  0.00  0.00     0.065 A 
ENDROOT
BRANCH   3   6
ATOM      6  N   UNL d   1     -26.050  21.192  21.620  0.00  0.00    -0.335 N 
ATOM      7  H   UNL d   1     -25.839  20.271  21.404  0.00  0.00     0.168 HD
BRANCH   6   8
ATOM      8  C   UNL d   1     -27.345  21.540  22.012  0.00  0.00     0.037 A 
ATOM      9  C   UNL d   1     -28.309  21.822  21.053  0.00  0.00     0.072 A 
ATOM     10  C   UNL d   1     -29.592  22.161  21.444  0.00  0.00     0.124 A 
ATOM     11  C   UNL d   1     -29.911  22.231  22.791  0.00  0.00    -0.023 A 
ATOM     12  F   UNL d   1     -30.533  22.430  20.513  0.00  0.00    -0.205 F 
ATOM     13  C   UNL d   1     -28.949  21.956  23.746  0.00  0.00     0.012 A 
ATOM     14  C   UNL d   1     -31.307  22.607  23.215  0.00  0.00     0.051 C 
ATOM     15  C   UNL d   1     -27.669  21.612  23.361  0.00  0.00     0.030 A 
ENDBRANCH   6   8
ENDBRANCH   3   6
BRANCH   1  16
ATOM     16  C   UNL d   1     -22.182  24.516  20.504  0.00  0.00     0.302 C 
ATOM     17  O   UNL d   1     -22.406  25.380  19.678  0.00  0.00    -0.259 OA
BRANCH  16  18
ATOM     18  O   UNL d   1     -20.920  24.303  20.934  0.00  0.00    -0.317 OA
BRANCH  18  19
ATOM     19  C   UNL d   1     -20.323  25.332  21.728  0.00  0.00     0.174 C 
ATOM     20  C   UNL d   1     -19.739  24.718  23.001  0.00  0.00     0.034 C 
ENDBRANCH  18  19
ENDBRANCH  16  18
ENDBRANCH   1  16
BRANCH   5  21
ATOM     21  C   UNL d   1     -23.428  24.942  23.230  0.00  0.00     0.039 A 
ATOM     22  C   UNL d   1     -23.627  26.405  22.828  0.00  0.00     0.011 A 
ATOM     23  C   UNL d   1     -24.535  25.772  23.884  0.00  0.00     0.011 A 
ENDBRANCH   5  21
TORSDOF 6
ENDMDL
