MODEL 1
REMARK VINA RESULT:      -9.2      0.000      0.000
REMARK  4 active torsions:
REMARK  status: ('A' for Active; 'I' for Inactive)
REMARK    1  A    between atoms: C_5  and  C_6 
REMARK    2  A    between atoms: C_6  and  S_7 
REMARK    3  A    between atoms: S_7  and  C_8 
REMARK    4  A    between atoms: C_15  and  O_16 
ROOT
ATOM      1  C   UNL d   1     -28.557  22.475  23.584  0.00  0.00     0.227 A 
ATOM      2  N   UNL d   1     -29.315  22.626  22.499  0.00  0.00    -0.033 NA
ATOM      3  C   UNL d   1     -30.572  22.299  22.782  0.00  0.00     0.754 A 
ATOM      4  N   UNL d   1     -31.687  22.281  22.043  0.00  0.00    -0.066 NA
ATOM      5  C   UNL d   1     -32.841  21.917  22.564  0.00  0.00     0.054 A 
ATOM      6  C   UNL d   1     -34.079  21.906  21.706  0.00  0.00     0.071 C 
ATOM      7  C   UNL d   1     -32.922  21.541  23.903  0.00  0.00     0.085 A 
ATOM      8  C   UNL d   1     -31.788  21.555  24.671  0.00  0.00     0.184 A 
ATOM      9  N   UNL d   1     -30.612  21.938  24.100  0.00  0.00    -0.035 N 
ATOM     10  N   UNL d   1     -29.305  22.060  24.587  0.00  0.00    -0.122 NA
ENDROOT
BRANCH   1  11
ATOM     11  S   UNL d   1     -26.825  22.789  23.667  0.00  0.00    -0.083 SA
BRANCH  11  12
ATOM     12  C   UNL d   1     -26.174  21.862  22.250  0.00  0.00     0.121 C 
BRANCH  12  13
ATOM     13  C   UNL d   1     -24.986  22.591  21.676  0.00  0.00    -0.049 A 
ATOM     14  C   UNL d   1     -24.647  22.420  20.347  0.00  0.00     0.008 A 
ATOM     15  C   UNL d   1     -23.558  23.088  19.820  0.00  0.00     0.007 A 
ATOM     16  C   UNL d   1     -22.803  23.922  20.624  0.00  0.00    -0.062 A 
ATOM     17  C   UNL d   1     -21.612  24.645  20.052  0.00  0.00     0.048 C 
ATOM     18  C   UNL d   1     -23.145  24.096  21.952  0.00  0.00     0.007 A 
ATOM     19  C   UNL d   1     -24.235  23.429  22.479  0.00  0.00     0.008 A 
ENDBRANCH  12  13
ENDBRANCH  11  12
ENDBRANCH   1  11
BRANCH   8  20
ATOM     20  O   UNL d   1     -31.835  21.195  25.973  0.00  0.00    -0.344 OA
ATOM     21  H   UNL d   1     -31.577  20.277  26.137  0.00  0.00     0.219 HD
ENDBRANCH   8  20
TORSDOF 4
ENDMDL
