MODEL 1
REMARK VINA RESULT:      -9.6      0.000      0.000
REMARK  7 active torsions:
REMARK  status: ('A' for Active; 'I' for Inactive)
REMARK    1  A    between atoms: C_2  and  O_3 
REMARK    2  A    between atoms: C_2  and  C_36 
REMARK    3  A    between atoms: O_3  and  C_4 
REMARK    4  A    between atoms: C_6  and  N_7 
REMARK    5  A    between atoms: C_20  and  C_21 
REMARK       I    between atoms: C_21  and  N_23 
REMARK    6  A    between atoms: N_23  and  C_24 
REMARK    7  A    between atoms: C_27  and  N_28 
ROOT
ATOM      1  C   UNL d   1     -21.594  26.103  24.201  0.00  0.00     0.087 A 
ATOM      2  C   UNL d   1     -20.266  26.488  24.220  0.00  0.00     0.073 A 
ATOM      3  C   UNL d   1     -19.352  25.876  23.372  0.00  0.00     0.104 A 
ATOM      4  C   UNL d   1     -19.768  24.871  22.500  0.00  0.00     0.146 A 
ATOM      5  F   UNL d   1     -18.875  24.283  21.674  0.00  0.00    -0.204 F 
ATOM      6  C   UNL d   1     -21.088  24.480  22.474  0.00  0.00     0.064 A 
ATOM      7  C   UNL d   1     -22.015  25.092  23.325  0.00  0.00     0.068 A 
ENDROOT
BRANCH   7   8
ATOM      8  C   UNL d   1     -23.427  24.676  23.299  0.00  0.00     0.260 C 
ATOM      9  O   UNL d   1     -24.307  25.513  23.218  0.00  0.00    -0.267 OA
ATOM     10  N   UNL d   1     -23.747  23.369  23.365  0.00  0.00    -0.306 N 
ATOM     11  H   UNL d   1     -23.052  22.707  23.504  0.00  0.00     0.170 HD
BRANCH  10  12
ATOM     12  C   UNL d   1     -25.078  22.968  23.234  0.00  0.00     0.152 A 
ATOM     13  N   UNL d   1     -25.959  23.279  24.170  0.00  0.00    -0.131 NA
ATOM     14  N   UNL d   1     -27.192  22.931  24.091  0.00  0.00    -0.136 NA
ATOM     15  C   UNL d   1     -27.664  22.237  23.067  0.00  0.00     0.128 A 
ATOM     16  C   UNL d   1     -26.810  21.862  22.030  0.00  0.00     0.050 A 
ATOM     17  C   UNL d   1     -25.481  22.242  22.113  0.00  0.00     0.056 A 
BRANCH  15  18
ATOM     18  N   UNL d   1     -29.010  21.883  23.026  0.00  0.00    -0.262 NA
ATOM     19  C   UNL d   1     -29.728  22.661  22.005  0.00  0.00     0.123 C 
ATOM     20  C   UNL d   1     -31.187  22.198  21.952  0.00  0.00     0.182 C 
ATOM     21  O   UNL d   1     -31.773  22.336  23.249  0.00  0.00    -0.389 OA
ATOM     22  C   UNL d   1     -31.100  21.591  24.267  0.00  0.00     0.182 C 
ATOM     23  C   UNL d   1     -29.640  22.047  24.344  0.00  0.00     0.123 C 
ENDBRANCH  15  18
ENDBRANCH  10  12
ENDBRANCH   7   8
BRANCH   1  24
ATOM     24  O   UNL d   1     -22.488  26.701  25.029  0.00  0.00    -0.345 OA
BRANCH  24  25
ATOM     25  C   UNL d   1     -22.036  27.026  26.346  0.00  0.00     0.129 C 
ATOM     26  C   UNL d   1     -20.940  26.045  26.766  0.00  0.00     0.040 C 
BRANCH  25  27
ATOM     27  C   UNL d   1     -21.478  28.450  26.355  0.00  0.00     0.015 C 
ATOM     28  C   UNL d   1     -22.398  29.355  27.177  0.00  0.00     0.007 C 
ATOM     29  C   UNL d   1     -21.838  30.778  27.186  0.00  0.00     0.000 C 
ATOM     30  C   UNL d   1     -20.441  30.773  27.809  0.00  0.00     0.000 C 
ATOM     31  C   UNL d   1     -19.521  29.869  26.987  0.00  0.00     0.000 C 
ATOM     32  C   UNL d   1     -20.080  28.445  26.978  0.00  0.00     0.007 C 
ENDBRANCH  25  27
ENDBRANCH  24  25
ENDBRANCH   1  24
BRANCH   3  33
ATOM     33  N   UNL d   1     -18.011  26.267  23.394  0.00  0.00    -0.178 N 
ATOM     34  C   UNL d   1     -17.069  25.846  24.265  0.00  0.00     0.351 A 
ATOM     35  N   UNL d   1     -15.914  26.440  23.924  0.00  0.00    -0.284 N 
ATOM     36  O   UNL d   1     -17.236  25.069  25.188  0.00  0.00    -0.244 OA
ATOM     37  C   UNL d   1     -16.154  27.271  22.848  0.00  0.00     0.131 A 
ATOM     38  C   UNL d   1     -14.596  26.250  24.539  0.00  0.00     0.135 C 
ATOM     39  N   UNL d   1     -17.395  27.168  22.513  0.00  0.00    -0.149 NA
ATOM     40  C   UNL d   1     -15.100  28.149  22.215  0.00  0.00     0.081 C 
ATOM     41  C   UNL d   1     -13.723  27.616  22.634  0.00  0.00     0.009 C 
ATOM     42  C   UNL d   1     -13.700  27.433  24.155  0.00  0.00     0.021 C 
ENDBRANCH   3  33
TORSDOF 7
ENDMDL
