MODEL 1
REMARK VINA RESULT:     -10.8      0.000      0.000
REMARK  3 active torsions:
REMARK  status: ('A' for Active; 'I' for Inactive)
REMARK       I    between atoms: C_2  and  N_3 
REMARK    1  A    between atoms: C_2  and  C_19 
REMARK    2  A    between atoms: N_3  and  C_4 
REMARK    3  A    between atoms: N_12  and  C_13 
ROOT
ATOM      1  C   UNL d   1     -27.236  22.276  22.285  0.00  0.00     0.121 C 
ATOM      2  C   UNL d   1     -26.484  21.183  21.515  0.00  0.00     0.030 C 
ATOM      3  C   UNL d   1     -25.392  21.824  20.655  0.00  0.00     0.008 C 
ATOM      4  C   UNL d   1     -24.276  22.361  21.559  0.00  0.00     0.060 C 
ATOM      5  C   UNL d   1     -24.905  23.197  22.645  0.00  0.00     0.046 A 
ATOM      6  C   UNL d   1     -26.224  23.160  22.968  0.00  0.00     0.008 A 
ATOM      7  C   UNL d   1     -26.438  24.063  24.007  0.00  0.00     0.150 A 
ATOM      8  N   UNL d   1     -25.291  24.625  24.303  0.00  0.00    -0.179 NA
ATOM      9  N   UNL d   1     -24.308  24.091  23.456  0.00  0.00    -0.238 N 
ENDROOT
BRANCH   1  10
ATOM     10  N   UNL d   1     -28.110  21.661  23.287  0.00  0.00    -0.347 N 
ATOM     11  C   UNL d   1     -29.362  22.128  23.468  0.00  0.00     0.273 C 
ATOM     12  O   UNL d   1     -29.765  23.058  22.800  0.00  0.00    -0.266 OA
ATOM     13  H   UNL d   1     -27.788  20.918  23.822  0.00  0.00     0.163 HD
BRANCH  11  14
ATOM     14  C   UNL d   1     -30.246  21.505  24.484  0.00  0.00     0.160 A 
ATOM     15  C   UNL d   1     -31.584  21.097  24.312  0.00  0.00     0.010 A 
ATOM     16  C   UNL d   1     -31.945  20.597  25.517  0.00  0.00     0.087 A 
ATOM     17  C   UNL d   1     -32.476  21.163  23.106  0.00  0.00     0.044 C 
ATOM     18  O   UNL d   1     -30.883  20.714  26.312  0.00  0.00    -0.217 OA
ATOM     19  C   UNL d   1     -33.311  20.035  25.815  0.00  0.00     0.068 C 
ATOM     20  N   UNL d   1     -29.942  21.214  25.729  0.00  0.00    -0.122 NA
ATOM     21  C   UNL d   1     -34.276  20.508  24.720  0.00  0.00     0.007 C 
ATOM     22  C   UNL d   1     -33.671  20.228  23.342  0.00  0.00     0.005 C 
ENDBRANCH  11  14
ENDBRANCH   1  10
BRANCH   9  23
ATOM     23  C   UNL d   1     -22.947  24.428  23.453  0.00  0.00     0.058 A 
ATOM     24  C   UNL d   1     -22.552  25.721  23.139  0.00  0.00     0.031 A 
ATOM     25  C   UNL d   1     -21.210  26.051  23.137  0.00  0.00     0.002 A 
ATOM     26  C   UNL d   1     -20.262  25.094  23.449  0.00  0.00     0.000 A 
ATOM     27  C   UNL d   1     -20.653  23.805  23.762  0.00  0.00     0.002 A 
ATOM     28  C   UNL d   1     -21.993  23.471  23.769  0.00  0.00     0.031 A 
ENDBRANCH   9  23
TORSDOF 3
ENDMDL
