MODEL 1
REMARK VINA RESULT:     -10.2      0.000      0.000
REMARK  7 active torsions:
REMARK  status: ('A' for Active; 'I' for Inactive)
REMARK    1  A    between atoms: C_5  and  C_6 
REMARK    2  A    between atoms: C_8  and  O_9 
REMARK    3  A    between atoms: O_9  and  C_10 
REMARK    4  A    between atoms: C_10  and  C_12 
REMARK    5  A    between atoms: C_16  and  C_17 
REMARK       I    between atoms: C_17  and  N_19 
REMARK    6  A    between atoms: N_19  and  C_20 
REMARK    7  A    between atoms: C_32  and  N_33 
ROOT
ATOM      1  C   UNL d   1     -26.782  23.319  23.706  0.00  0.00     0.034 A 
ATOM      2  C   UNL d   1     -25.909  22.828  22.738  0.00  0.00     0.054 A 
ATOM      3  C   UNL d   1     -24.649  23.384  22.599  0.00  0.00     0.086 A 
ATOM      4  C   UNL d   1     -24.255  24.441  23.431  0.00  0.00     0.068 A 
ATOM      5  C   UNL d   1     -25.135  24.930  24.400  0.00  0.00     0.063 A 
ATOM      6  C   UNL d   1     -26.389  24.373  24.536  0.00  0.00     0.130 A 
ATOM      7  F   UNL d   1     -27.237  24.843  25.478  0.00  0.00    -0.205 F 
ENDROOT
BRANCH   4   8
ATOM      8  C   UNL d   1     -22.914  25.036  23.285  0.00  0.00     0.259 C 
ATOM      9  O   UNL d   1     -22.759  26.022  22.589  0.00  0.00    -0.267 OA
ATOM     10  N   UNL d   1     -21.860  24.489  23.923  0.00  0.00    -0.319 N 
ATOM     11  H   UNL d   1     -21.996  23.754  24.542  0.00  0.00     0.169 HD
BRANCH  10  12
ATOM     12  C   UNL d   1     -20.569  24.980  23.691  0.00  0.00     0.096 A 
ATOM     13  C   UNL d   1     -20.057  25.994  24.490  0.00  0.00     0.064 A 
ATOM     14  C   UNL d   1     -18.780  26.473  24.263  0.00  0.00     0.026 A 
ATOM     15 CL   UNL d   1     -21.015  26.654  25.778  0.00  0.00    -0.082 Cl
ATOM     16  C   UNL d   1     -18.018  25.953  23.233  0.00  0.00     0.005 A 
ATOM     17  C   UNL d   1     -18.526  24.947  22.432  0.00  0.00     0.045 A 
ATOM     18  C   UNL d   1     -19.800  24.459  22.657  0.00  0.00     0.144 A 
ATOM     19  F   UNL d   1     -20.297  23.476  21.873  0.00  0.00    -0.204 F 
ENDBRANCH  10  12
ENDBRANCH   4   8
BRANCH   3  20
ATOM     20  O   UNL d   1     -23.797  22.907  21.656  0.00  0.00    -0.336 OA
BRANCH  20  21
ATOM     21  C   UNL d   1     -23.940  23.421  20.331  0.00  0.00     0.232 C 
ATOM     22  C   UNL d   1     -22.575  23.874  19.809  0.00  0.00     0.049 C 
BRANCH  21  23
ATOM     23  C   UNL d   1     -24.500  22.330  19.418  0.00  0.00     0.413 C 
ATOM     24  F   UNL d   1     -25.779  21.968  19.852  0.00  0.00    -0.168 F 
ATOM     25  F   UNL d   1     -24.572  22.810  18.105  0.00  0.00    -0.168 F 
ATOM     26  F   UNL d   1     -23.660  21.212  19.458  0.00  0.00    -0.168 F 
ENDBRANCH  21  23
ENDBRANCH  20  21
ENDBRANCH   3  20
BRANCH   1  27
ATOM     27  C   UNL d   1     -28.131  22.722  23.856  0.00  0.00     0.072 A 
ATOM     28  C   UNL d   1     -29.075  22.890  22.847  0.00  0.00     0.033 A 
ATOM     29  C   UNL d   1     -30.333  22.328  22.998  0.00  0.00     0.013 A 
ATOM     30  C   UNL d   1     -30.607  21.616  24.153  0.00  0.00    -0.017 A 
ATOM     31  C   UNL d   1     -31.962  20.989  24.358  0.00  0.00     0.052 C 
ATOM     32  C   UNL d   1     -29.618  21.486  25.123  0.00  0.00     0.127 A 
ATOM     33  N   UNL d   1     -28.425  22.029  24.950  0.00  0.00    -0.231 NA
BRANCH  32  34
ATOM     34  N   UNL d   1     -29.886  20.772  26.287  0.00  0.00    -0.384 N 
ATOM     35  H   UNL d   1     -29.403  20.977  27.103  0.00  0.00     0.157 HD
ATOM     36  H   UNL d   1     -30.556  20.072  26.282  0.00  0.00     0.157 HD
ENDBRANCH  32  34
ENDBRANCH   1  27
TORSDOF 7
ENDMDL
