MODEL 1
REMARK VINA RESULT:     -12.7      0.000      0.000
REMARK  2 active torsions:
REMARK  status: ('A' for Active; 'I' for Inactive)
REMARK    1  A    between atoms: C_9  and  C_10 
REMARK    2  A    between atoms: C_15  and  C_16 
ROOT
ATOM      1  C   UNL d   1     -33.489  20.128  25.933  0.00  0.00     0.048 C 
ATOM      2  C   UNL d   1     -32.476  20.688  24.969  0.00  0.00    -0.058 A 
ATOM      3  C   UNL d   1     -32.877  21.076  23.704  0.00  0.00     0.032 A 
ATOM      4  C   UNL d   1     -31.952  21.595  22.800  0.00  0.00     0.076 A 
ATOM      5  C   UNL d   1     -32.369  21.996  21.490  0.00  0.00     0.102 C 
ATOM      6  N   UNL d   1     -32.699  22.314  20.451  0.00  0.00    -0.191 NA
ATOM      7  C   UNL d   1     -30.600  21.723  23.187  0.00  0.00     0.106 A 
ATOM      8  N   UNL d   1     -29.499  22.176  22.562  0.00  0.00    -0.227 NA
ATOM      9  C   UNL d   1     -28.463  22.088  23.364  0.00  0.00     0.145 A 
ATOM     10  N   UNL d   1     -28.853  21.560  24.564  0.00  0.00    -0.338 N 
ATOM     11  H   UNL d   1     -28.285  21.386  25.330  0.00  0.00     0.167 HD
ATOM     12  C   UNL d   1     -30.214  21.323  24.479  0.00  0.00     0.065 A 
ATOM     13  C   UNL d   1     -31.156  20.810  25.358  0.00  0.00     0.038 A 
ENDROOT
BRANCH   9  14
ATOM     14  C   UNL d   1     -27.084  22.491  23.021  0.00  0.00     0.093 A 
ATOM     15  C   UNL d   1     -26.389  21.821  22.010  0.00  0.00     0.173 A 
ATOM     16  C   UNL d   1     -25.102  22.202  21.688  0.00  0.00     0.170 A 
ATOM     17  F   UNL d   1     -26.979  20.803  21.345  0.00  0.00    -0.202 F 
ATOM     18  C   UNL d   1     -24.490  23.250  22.378  0.00  0.00     0.058 A 
ATOM     19  F   UNL d   1     -24.432  21.558  20.707  0.00  0.00    -0.202 F 
ATOM     20  C   UNL d   1     -25.183  23.920  23.388  0.00  0.00     0.170 A 
ATOM     21  C   UNL d   1     -26.472  23.545  23.709  0.00  0.00     0.173 A 
ATOM     22  F   UNL d   1     -24.591  24.938  24.052  0.00  0.00    -0.202 F 
ATOM     23  F   UNL d   1     -27.142  24.194  24.687  0.00  0.00    -0.202 F 
BRANCH  18  24
ATOM     24  C   UNL d   1     -23.106  23.655  22.036  0.00  0.00    -0.020 A 
ATOM     25  C   UNL d   1     -22.854  24.365  20.862  0.00  0.00     0.012 A 
ATOM     26  C   UNL d   1     -21.564  24.737  20.547  0.00  0.00     0.001 A 
ATOM     27  C   UNL d   1     -20.520  24.409  21.394  0.00  0.00     0.000 A 
ATOM     28  C   UNL d   1     -20.763  23.706  22.560  0.00  0.00     0.001 A 
ATOM     29  C   UNL d   1     -22.050  23.327  22.885  0.00  0.00     0.012 A 
ENDBRANCH  18  24
ENDBRANCH   9  14
TORSDOF 2
ENDMDL
