MODEL 1
REMARK VINA RESULT:      -8.4      0.000      0.000
REMARK  7 active torsions:
REMARK  status: ('A' for Active; 'I' for Inactive)
REMARK    1  A    between atoms: C_2  and  C_3 
REMARK    2  A    between atoms: N_5  and  C_6 
REMARK    3  A    between atoms: C_8  and  O_9 
REMARK    4  A    between atoms: O_9  and  C_10 
REMARK    5  A    between atoms: C_10  and  C_12 
REMARK    6  A    between atoms: C_18  and  C_19 
REMARK       I    between atoms: C_19  and  N_21 
REMARK    7  A    between atoms: N_21  and  C_22 
ROOT
ATOM      1  C   UNL d   1     -18.151  25.908  23.263  0.00  0.00     0.104 A 
ATOM      2  C   UNL d   1     -19.191  26.180  24.142  0.00  0.00     0.073 A 
ATOM      3  C   UNL d   1     -20.372  25.465  24.059  0.00  0.00     0.087 A 
ATOM      4  C   UNL d   1     -20.517  24.465  23.085  0.00  0.00     0.068 A 
ATOM      5  C   UNL d   1     -19.462  24.195  22.206  0.00  0.00     0.064 A 
ATOM      6  C   UNL d   1     -18.292  24.917  22.293  0.00  0.00     0.146 A 
ATOM      7  F   UNL d   1     -17.277  24.659  21.441  0.00  0.00    -0.204 F 
ENDROOT
BRANCH   4   8
ATOM      8  C   UNL d   1     -21.772  23.702  22.990  0.00  0.00     0.259 C 
ATOM      9  O   UNL d   1     -21.846  22.590  23.478  0.00  0.00    -0.267 OA
ATOM     10  N   UNL d   1     -22.838  24.233  22.360  0.00  0.00    -0.322 N 
ATOM     11  H   UNL d   1     -22.756  25.083  21.901  0.00  0.00     0.169 HD
BRANCH  10  12
ATOM     12  C   UNL d   1     -24.066  23.559  22.371  0.00  0.00     0.042 A 
ATOM     13  C   UNL d   1     -24.440  22.781  21.274  0.00  0.00    -0.033 A 
ATOM     14  C   UNL d   1     -25.634  22.121  21.262  0.00  0.00     0.041 A 
ATOM     15  C   UNL d   1     -23.518  22.675  20.087  0.00  0.00     0.050 C 
ATOM     16  C   UNL d   1     -26.492  22.207  22.357  0.00  0.00     0.062 A 
ATOM     17  C   UNL d   1     -26.120  22.983  23.472  0.00  0.00     0.013 A 
ATOM     18  N   UNL d   1     -27.723  21.672  22.641  0.00  0.00    -0.278 N 
ATOM     19  C   UNL d   1     -24.896  23.660  23.470  0.00  0.00     0.045 A 
ATOM     20  C   UNL d   1     -27.214  22.870  24.433  0.00  0.00     0.152 A 
ATOM     21  N   UNL d   1     -28.125  22.099  23.911  0.00  0.00    -0.186 NA
ATOM     22  H   UNL d   1     -28.232  21.090  22.055  0.00  0.00     0.189 HD
ENDBRANCH  10  12
ENDBRANCH   4   8
BRANCH   3  23
ATOM     23  O   UNL d   1     -21.389  25.730  24.918  0.00  0.00    -0.341 OA
BRANCH  23  24
ATOM     24  C   UNL d   1     -21.879  27.071  24.950  0.00  0.00     0.158 C 
ATOM     25  C   UNL d   1     -23.395  27.066  24.737  0.00  0.00     0.045 C 
BRANCH  24  26
ATOM     26  C   UNL d   1     -21.560  27.691  26.286  0.00  0.00    -0.029 A 
ATOM     27  C   UNL d   1     -20.892  26.955  27.248  0.00  0.00     0.010 A 
ATOM     28  C   UNL d   1     -20.599  27.524  28.473  0.00  0.00     0.001 A 
ATOM     29  C   UNL d   1     -20.972  28.828  28.737  0.00  0.00     0.000 A 
ATOM     30  C   UNL d   1     -21.638  29.564  27.774  0.00  0.00     0.001 A 
ATOM     31  C   UNL d   1     -21.928  28.997  26.548  0.00  0.00     0.010 A 
ENDBRANCH  24  26
ENDBRANCH  23  24
ENDBRANCH   3  23
BRANCH   1  32
ATOM     32  N   UNL d   1     -16.959  26.633  23.349  0.00  0.00    -0.178 N 
ATOM     33  N   UNL d   1     -16.598  27.734  22.561  0.00  0.00    -0.149 NA
ATOM     34  C   UNL d   1     -15.425  28.131  22.938  0.00  0.00     0.130 A 
ATOM     35  N   UNL d   1     -14.990  27.323  23.959  0.00  0.00    -0.289 N 
ATOM     36  C   UNL d   1     -15.945  26.405  24.210  0.00  0.00     0.351 A 
ATOM     37  C   UNL d   1     -13.710  27.441  24.661  0.00  0.00     0.162 C 
ATOM     38  O   UNL d   1     -15.901  25.531  25.056  0.00  0.00    -0.244 OA
BRANCH  34  39
ATOM     39  C   UNL d   1     -14.662  29.291  22.351  0.00  0.00     0.076 C 
ATOM     40  C   UNL d   1     -15.113  30.590  23.020  0.00  0.00     0.013 C 
ENDBRANCH  34  39
ENDBRANCH   1  32
TORSDOF 7
ENDMDL
