MODEL 1
REMARK VINA RESULT:      -9.3      0.000      0.000
REMARK  10 active torsions:
REMARK  status: ('A' for Active; 'I' for Inactive)
REMARK    1  A    between atoms: C_2  and  N_3 
REMARK    2  A    between atoms: C_4  and  C_5 
REMARK    3  A    between atoms: C_5  and  O_6 
REMARK    4  A    between atoms: N_8  and  C_9 
REMARK    5  A    between atoms: C_11  and  O_12 
REMARK    6  A    between atoms: O_12  and  C_13 
REMARK    7  A    between atoms: C_13  and  C_15 
REMARK    8  A    between atoms: C_19  and  C_20 
REMARK       I    between atoms: C_20  and  N_22 
REMARK    9  A    between atoms: N_22  and  C_23 
REMARK   10  A    between atoms: C_29  and  O_30 
ROOT
ATOM      1  C   UNL d   1     -26.582  23.531  23.705  0.00  0.00     0.197 A 
ATOM      2  N   UNL d   1     -25.683  23.070  22.848  0.00  0.00    -0.201 NA
ATOM      3  C   UNL d   1     -24.472  23.593  22.762  0.00  0.00     0.183 A 
ATOM      4  C   UNL d   1     -24.099  24.664  23.588  0.00  0.00     0.088 A 
ATOM      5  C   UNL d   1     -25.030  25.169  24.510  0.00  0.00     0.068 A 
ATOM      6  C   UNL d   1     -26.285  24.594  24.557  0.00  0.00     0.165 A 
ATOM      7  F   UNL d   1     -27.212  25.052  25.426  0.00  0.00    -0.202 F 
ENDROOT
BRANCH   4   8
ATOM      8  C   UNL d   1     -22.750  25.246  23.494  0.00  0.00     0.260 C 
ATOM      9  O   UNL d   1     -22.543  26.187  22.749  0.00  0.00    -0.267 OA
ATOM     10  N   UNL d   1     -21.743  24.739  24.232  0.00  0.00    -0.318 N 
ATOM     11  H   UNL d   1     -21.890  23.946  24.773  0.00  0.00     0.169 HD
BRANCH  10  12
ATOM     12  C   UNL d   1     -20.485  25.355  24.220  0.00  0.00     0.110 A 
ATOM     13  C   UNL d   1     -19.482  24.901  23.365  0.00  0.00     0.193 A 
ATOM     14  N   UNL d   1     -18.295  25.482  23.353  0.00  0.00    -0.235 NA
ATOM     15  C   UNL d   1     -18.013  26.503  24.140  0.00  0.00     0.121 A 
ATOM     16  C   UNL d   1     -18.957  27.011  25.010  0.00  0.00     0.045 A 
ATOM     17  C   UNL d   1     -20.217  26.430  25.062  0.00  0.00     0.066 A 
ATOM     18 CL   UNL d   1     -21.430  27.033  26.148  0.00  0.00    -0.082 Cl
BRANCH  13  19
ATOM     19  O   UNL d   1     -19.728  23.853  22.536  0.00  0.00    -0.338 OA
ATOM     20  C   UNL d   1     -19.447  24.044  21.149  0.00  0.00     0.211 C 
ENDBRANCH  13  19
ENDBRANCH  10  12
ENDBRANCH   4   8
BRANCH   3  21
ATOM     21  O   UNL d   1     -23.585  23.090  21.872  0.00  0.00    -0.319 OA
BRANCH  21  22
ATOM     22  C   UNL d   1     -23.870  23.292  20.486  0.00  0.00     0.234 C 
ATOM     23  C   UNL d   1     -22.578  23.645  19.746  0.00  0.00     0.049 C 
BRANCH  22  24
ATOM     24  C   UNL d   1     -24.463  22.012  19.895  0.00  0.00     0.413 C 
ATOM     25  F   UNL d   1     -24.199  20.938  20.752  0.00  0.00    -0.168 F 
ATOM     26  F   UNL d   1     -25.847  22.164  19.750  0.00  0.00    -0.168 F 
ATOM     27  F   UNL d   1     -23.887  21.764  18.645  0.00  0.00    -0.168 F 
ENDBRANCH  22  24
ENDBRANCH  21  22
ENDBRANCH   3  21
BRANCH   1  28
ATOM     28  N   UNL d   1     -27.844  22.944  23.756  0.00  0.00    -0.159 N 
ATOM     29  N   UNL d   1     -28.863  23.083  22.802  0.00  0.00    -0.145 NA
ATOM     30  C   UNL d   1     -29.880  22.388  23.198  0.00  0.00     0.154 A 
ATOM     31  N   UNL d   1     -29.574  21.795  24.398  0.00  0.00    -0.283 N 
ATOM     32  C   UNL d   1     -28.315  22.144  24.734  0.00  0.00     0.352 A 
ATOM     33  O   UNL d   1     -27.715  21.799  25.736  0.00  0.00    -0.244 OA
BRANCH  30  34
ATOM     34  C   UNL d   1     -31.190  22.256  22.464  0.00  0.00     0.244 C 
BRANCH  34  35
ATOM     35  O   UNL d   1     -30.962  22.360  21.057  0.00  0.00    -0.393 OA
ATOM     36  H   UNL d   1     -30.923  23.269  20.731  0.00  0.00     0.209 HD
ENDBRANCH  34  35
ENDBRANCH  30  34
BRANCH  31  37
ATOM     37  C   UNL d   1     -30.462  20.930  25.180  0.00  0.00     0.131 C 
ATOM     38  C   UNL d   1     -31.572  21.775  25.807  0.00  0.00     0.027 C 
ENDBRANCH  31  37
ENDBRANCH   1  28
TORSDOF 10
ENDMDL
