MODEL 1
REMARK VINA RESULT:      -9.7      0.000      0.000
REMARK  8 active torsions:
REMARK  status: ('A' for Active; 'I' for Inactive)
REMARK    1  A    between atoms: C_2  and  C_3 
REMARK    2  A    between atoms: C_3  and  C_4 
REMARK    3  A    between atoms: C_3  and  N_6 
REMARK    4  A    between atoms: C_8  and  C_9 
REMARK    5  A    between atoms: C_14  and  N_15 
REMARK    6  A    between atoms: C_17  and  C_18 
REMARK    7  A    between atoms: C_18  and  O_19 
REMARK    8  A    between atoms: N_20  and  C_21 
ROOT
ATOM      1  N   UNL d   1     -31.376  21.151  24.795  0.00  0.00    -0.319 N 
ATOM      2  C   UNL d   1     -31.305  21.545  23.489  0.00  0.00     0.103 A 
ATOM      3  C   UNL d   1     -30.209  22.117  22.968  0.00  0.00    -0.028 A 
ATOM      4  C   UNL d   1     -29.037  22.332  23.820  0.00  0.00    -0.010 A 
ATOM      5  C   UNL d   1     -27.870  22.922  23.334  0.00  0.00     0.048 A 
ATOM      6  C   UNL d   1     -26.793  23.099  24.185  0.00  0.00     0.103 A 
ATOM      7  C   UNL d   1     -26.868  22.689  25.520  0.00  0.00     0.146 A 
ATOM      8  F   UNL d   1     -25.804  22.868  26.333  0.00  0.00    -0.204 F 
ATOM      9  C   UNL d   1     -28.007  22.117  26.013  0.00  0.00     0.062 A 
ATOM     10  C   UNL d   1     -29.106  21.926  25.173  0.00  0.00     0.046 A 
ATOM     11  C   UNL d   1     -30.347  21.311  25.651  0.00  0.00     0.259 A 
ATOM     12  O   UNL d   1     -30.448  20.947  26.809  0.00  0.00    -0.267 OA
ENDROOT
BRANCH   6  13
ATOM     13  N   UNL d   1     -25.621  23.688  23.705  0.00  0.00    -0.178 N 
ATOM     14  C   UNL d   1     -25.301  24.999  23.766  0.00  0.00     0.351 A 
ATOM     15  N   UNL d   1     -24.090  25.145  23.192  0.00  0.00    -0.283 N 
ATOM     16  O   UNL d   1     -25.982  25.885  24.250  0.00  0.00    -0.244 OA
ATOM     17  C   UNL d   1     -23.660  23.911  22.769  0.00  0.00     0.154 A 
ATOM     18  N   UNL d   1     -24.559  23.030  23.071  0.00  0.00    -0.147 NA
BRANCH  15  19
ATOM     19  C   UNL d   1     -23.359  26.406  23.041  0.00  0.00     0.131 C 
ATOM     20  C   UNL d   1     -22.495  26.646  24.280  0.00  0.00     0.027 C 
ENDBRANCH  15  19
BRANCH  17  21
ATOM     21  C   UNL d   1     -22.355  23.629  22.070  0.00  0.00     0.244 C 
BRANCH  21  22
ATOM     22  O   UNL d   1     -21.333  23.397  23.042  0.00  0.00    -0.393 OA
ATOM     23  H   UNL d   1     -21.481  22.614  23.588  0.00  0.00     0.209 HD
ENDBRANCH  21  22
ENDBRANCH  17  21
ENDBRANCH   6  13
BRANCH   3  24
ATOM     24  C   UNL d   1     -30.183  22.534  21.520  0.00  0.00     0.013 C 
ATOM     25  C   UNL d   1     -29.045  21.806  20.801  0.00  0.00     0.015 C 
ATOM     26  C   UNL d   1     -31.515  22.174  20.861  0.00  0.00     0.015 C 
ENDBRANCH   3  24
BRANCH   1  27
ATOM     27  C   UNL d   1     -32.612  20.536  25.283  0.00  0.00     0.092 C 
BRANCH  27  28
ATOM     28  C   UNL d   1     -33.801  21.086  24.494  0.00  0.00     0.021 C 
ATOM     29  C   UNL d   1     -33.971  20.285  23.202  0.00  0.00     0.007 C 
ENDBRANCH  27  28
BRANCH  27  30
ATOM     30  C   UNL d   1     -32.535  19.020  25.097  0.00  0.00     0.021 C 
ATOM     31  C   UNL d   1     -32.135  18.364  26.420  0.00  0.00     0.007 C 
ENDBRANCH  27  30
ENDBRANCH   1  27
TORSDOF 8
ENDMDL
