MODEL 1
REMARK VINA RESULT:     -10.4      0.000      0.000
REMARK  7 active torsions:
REMARK  status: ('A' for Active; 'I' for Inactive)
REMARK    1  A    between atoms: C_2  and  C_3 
REMARK    2  A    between atoms: C_3  and  C_4 
REMARK    3  A    between atoms: C_4  and  O_6 
REMARK    4  A    between atoms: O_6  and  C_7 
REMARK    5  A    between atoms: C_9  and  N_10 
REMARK    6  A    between atoms: C_23  and  C_24 
REMARK       I    between atoms: C_24  and  N_26 
REMARK    7  A    between atoms: N_26  and  C_27 
ROOT
ATOM      1  C   UNL d   1     -26.049  23.242  23.295  0.00  0.00     0.087 A 
ATOM      2  C   UNL d   1     -27.425  23.097  23.355  0.00  0.00     0.073 A 
ATOM      3  C   UNL d   1     -28.071  22.239  22.476  0.00  0.00     0.104 A 
ATOM      4  C   UNL d   1     -27.342  21.530  21.522  0.00  0.00     0.146 A 
ATOM      5  F   UNL d   1     -27.979  20.701  20.666  0.00  0.00    -0.204 F 
ATOM      6  C   UNL d   1     -25.975  21.673  21.450  0.00  0.00     0.064 A 
ATOM      7  C   UNL d   1     -25.315  22.531  22.336  0.00  0.00     0.068 A 
ENDROOT
BRANCH   7   8
ATOM      8  C   UNL d   1     -23.852  22.686  22.261  0.00  0.00     0.259 C 
ATOM      9  O   UNL d   1     -23.129  21.720  22.409  0.00  0.00    -0.267 OA
ATOM     10  N   UNL d   1     -23.314  23.900  22.031  0.00  0.00    -0.321 N 
ATOM     11  H   UNL d   1     -23.890  24.656  21.832  0.00  0.00     0.169 HD
BRANCH  10  12
ATOM     12  C   UNL d   1     -21.926  24.071  22.077  0.00  0.00     0.058 A 
ATOM     13  C   UNL d   1     -21.224  24.457  20.939  0.00  0.00    -0.032 A 
ATOM     14  C   UNL d   1     -19.850  24.614  21.034  0.00  0.00     0.028 A 
ATOM     15  C   UNL d   1     -21.939  24.699  19.634  0.00  0.00     0.050 C 
ATOM     16  C   UNL d   1     -19.228  24.383  22.247  0.00  0.00     0.117 A 
ATOM     17  N   UNL d   1     -19.922  24.019  23.307  0.00  0.00    -0.271 NA
ATOM     18  C   UNL d   1     -21.230  23.864  23.261  0.00  0.00     0.146 A 
ENDBRANCH  10  12
ENDBRANCH   7   8
BRANCH   1  19
ATOM     19  O   UNL d   1     -25.415  24.077  24.157  0.00  0.00    -0.345 OA
BRANCH  19  20
ATOM     20  C   UNL d   1     -25.739  25.466  24.072  0.00  0.00     0.124 C 
ATOM     21  C   UNL d   1     -26.214  25.964  25.438  0.00  0.00     0.040 C 
BRANCH  20  22
ATOM     22  C   UNL d   1     -24.498  26.254  23.644  0.00  0.00     0.032 C 
BRANCH  22  23
ATOM     23  C   UNL d   1     -23.488  26.278  24.793  0.00  0.00    -0.002 C 
ATOM     24  C   UNL d   1     -22.261  27.089  24.376  0.00  0.00     0.005 C 
ENDBRANCH  22  23
ENDBRANCH  20  22
ENDBRANCH  19  20
ENDBRANCH   1  19
BRANCH   3  25
ATOM     25  N   UNL d   1     -29.459  22.090  22.544  0.00  0.00    -0.178 N 
ATOM     26  C   UNL d   1     -30.177  21.780  23.646  0.00  0.00     0.351 A 
ATOM     27  N   UNL d   1     -31.472  21.764  23.288  0.00  0.00    -0.284 N 
ATOM     28  O   UNL d   1     -29.733  21.554  24.757  0.00  0.00    -0.244 OA
ATOM     29  C   UNL d   1     -31.552  22.030  21.936  0.00  0.00     0.131 A 
ATOM     30  C   UNL d   1     -32.634  21.533  24.152  0.00  0.00     0.135 C 
ATOM     31  N   UNL d   1     -30.363  22.234  21.481  0.00  0.00    -0.149 NA
ATOM     32  C   UNL d   1     -32.850  22.059  21.163  0.00  0.00     0.081 C 
ATOM     33  C   UNL d   1     -34.000  22.206  22.169  0.00  0.00     0.009 C 
ATOM     34  C   UNL d   1     -33.833  21.158  23.274  0.00  0.00     0.021 C 
ENDBRANCH   3  25
TORSDOF 7
ENDMDL
