MODEL 1
REMARK VINA RESULT:     -10.3      0.000      0.000
REMARK  7 active torsions:
REMARK  status: ('A' for Active; 'I' for Inactive)
REMARK    1  A    between atoms: C_2  and  O_3 
REMARK    2  A    between atoms: C_2  and  C_4 
REMARK    3  A    between atoms: C_9  and  N_10 
REMARK    4  A    between atoms: N_10  and  C_11 
REMARK    5  A    between atoms: C_15  and  C_16 
REMARK    6  A    between atoms: C_20  and  O_21 
REMARK    7  A    between atoms: O_21  and  C_22 
ROOT
ATOM      1  C   UNL d   1     -29.852  22.008  24.349  0.00  0.00     0.112 A 
ATOM      2  C   UNL d   1     -28.682  22.070  25.099  0.00  0.00     0.146 A 
ATOM      3  F   UNL d   1     -28.739  21.991  26.447  0.00  0.00    -0.204 F 
ATOM      4  C   UNL d   1     -27.462  22.206  24.468  0.00  0.00     0.057 A 
ATOM      5  C   UNL d   1     -27.404  22.292  23.078  0.00  0.00    -0.020 A 
ATOM      6  C   UNL d   1     -28.577  22.236  22.328  0.00  0.00     0.057 A 
ATOM      7  C   UNL d   1     -29.795  22.094  22.961  0.00  0.00     0.146 A 
ATOM      8  F   UNL d   1     -30.932  22.038  22.234  0.00  0.00    -0.204 F 
ENDROOT
BRANCH   1   9
ATOM      9  N   UNL d   1     -31.087  21.865  24.990  0.00  0.00    -0.335 N 
ATOM     10  H   UNL d   1     -31.653  22.640  25.133  0.00  0.00     0.168 HD
BRANCH   9  11
ATOM     11  C   UNL d   1     -31.502  20.618  25.420  0.00  0.00     0.144 A 
ATOM     12  C   UNL d   1     -32.621  20.009  24.825  0.00  0.00     0.083 A 
ATOM     13  C   UNL d   1     -33.022  18.746  25.277  0.00  0.00     0.024 A 
ATOM     14  C   UNL d   1     -32.297  18.152  26.294  0.00  0.00     0.020 A 
ATOM     15  C   UNL d   1     -31.206  18.813  26.830  0.00  0.00     0.119 A 
ATOM     16  N   UNL d   1     -30.844  20.002  26.391  0.00  0.00    -0.242 NA
BRANCH  12  17
ATOM     17  C   UNL d   1     -33.358  20.688  23.745  0.00  0.00     0.180 C 
ATOM     18  O   UNL d   1     -33.717  20.063  22.767  0.00  0.00    -0.646 OA
BRANCH  17  19
ATOM     19  O   UNL d   1     -33.632  22.004  23.840  0.00  0.00    -0.773 OA
ATOM     20  H   UNL d   1     -33.264  22.581  23.157  0.00  0.00     0.167 HD
ENDBRANCH  17  19
ENDBRANCH  12  17
ENDBRANCH   9  11
ENDBRANCH   1   9
BRANCH   5  21
ATOM     21  C   UNL d   1     -26.094  22.445  22.397  0.00  0.00    -0.023 A 
ATOM     22  C   UNL d   1     -25.075  23.180  23.001  0.00  0.00     0.049 A 
ATOM     23  C   UNL d   1     -23.853  23.314  22.363  0.00  0.00     0.070 A 
ATOM     24  C   UNL d   1     -23.649  22.727  21.122  0.00  0.00     0.037 A 
ATOM     25  C   UNL d   1     -24.661  22.002  20.521  0.00  0.00     0.004 A 
ATOM     26  C   UNL d   1     -25.880  21.857  21.152  0.00  0.00     0.012 A 
BRANCH  23  27
ATOM     27  O   UNL d   1     -22.855  24.026  22.950  0.00  0.00    -0.346 OA
BRANCH  27  28
ATOM     28  C   UNL d   1     -22.669  25.371  22.506  0.00  0.00     0.129 A 
ATOM     29  C   UNL d   1     -23.493  26.463  23.191  0.00  0.00     0.035 A 
ATOM     30  C   UNL d   1     -21.992  26.347  23.470  0.00  0.00     0.035 A 
ENDBRANCH  27  28
ENDBRANCH  23  27
ENDBRANCH   5  21
TORSDOF 7
ENDMDL
