MODEL 1
REMARK VINA RESULT:     -10.3      0.000      0.000
REMARK  7 active torsions:
REMARK  status: ('A' for Active; 'I' for Inactive)
REMARK    1  A    between atoms: C_2  and  O_5 
REMARK    2  A    between atoms: O_5  and  C_6 
REMARK       I    between atoms: C_6  and  N_8 
REMARK    3  A    between atoms: C_13  and  C_14 
REMARK    4  A    between atoms: C_14  and  C_15 
REMARK    5  A    between atoms: C_15  and  C_16 
REMARK    6  A    between atoms: CA_17  and  C_18 
REMARK    7  A    between atoms: C_18  and  OXT_20 
ROOT
ATOM      1  C   UNL d   1     -22.980  24.818  22.438  0.00  0.00     0.368 C 
ATOM      2  O   UNL d   1     -23.346  25.377  23.453  0.00  0.00    -0.238 OA
ATOM      3  N   UNL d   1     -23.722  23.825  21.909  0.00  0.00    -0.293 N 
ATOM      4  C   UNL d   1     -23.384  23.079  20.694  0.00  0.00     0.139 A 
ATOM      5  C   UNL d   1     -24.525  22.064  20.514  0.00  0.00     0.061 A 
ATOM      6  C   UNL d   1     -25.452  22.323  21.680  0.00  0.00    -0.029 A 
ATOM      7  C   UNL d   1     -26.641  21.719  22.043  0.00  0.00     0.016 A 
ATOM      8  C   UNL d   1     -27.316  22.139  23.174  0.00  0.00    -0.057 A 
ATOM      9  C   UNL d   1     -26.799  23.166  23.942  0.00  0.00     0.009 A 
ATOM     10  C   UNL d   1     -25.612  23.771  23.584  0.00  0.00     0.031 A 
ATOM     11  C   UNL d   1     -24.925  23.352  22.443  0.00  0.00     0.045 A 
ENDROOT
BRANCH   8  12
ATOM     12  C   UNL d   1     -28.613  21.481  23.568  0.00  0.00     0.043 C 
BRANCH  12  13
ATOM     13  C   UNL d   1     -29.702  22.547  23.710  0.00  0.00     0.051 C 
BRANCH  13  14
ATOM     14  C   UNL d   1     -31.024  21.976  23.264  0.00  0.00     0.044 A 
ATOM     15  C   UNL d   1     -31.469  22.111  21.870  0.00  0.00     0.258 A 
ATOM     16  N   UNL d   1     -32.656  21.581  21.513  0.00  0.00    -0.275 N 
ATOM     17  O   UNL d   1     -30.775  22.685  21.052  0.00  0.00    -0.267 OA
ATOM     18  C   UNL d   1     -33.422  20.951  22.421  0.00  0.00     0.327 A 
ATOM     19  H   UNL d   1     -32.962  21.659  20.596  0.00  0.00     0.173 HD
ATOM     20  N   UNL d   1     -33.038  20.821  23.701  0.00  0.00    -0.302 N 
ATOM     21  O   UNL d   1     -34.491  20.486  22.073  0.00  0.00    -0.247 OA
ATOM     22  CA  UNL d   1     -31.835  21.331  24.141  0.00  0.00     0.122 A 
ATOM     23  H   UNL d   1     -33.618  20.360  24.328  0.00  0.00     0.171 HD
BRANCH  22  24
ATOM     24  C   UNL d   1     -31.430  21.176  25.559  0.00  0.00     0.194 C 
ATOM     25  O   UNL d   1     -31.679  22.052  26.360  0.00  0.00    -0.645 OA
BRANCH  24  26
ATOM     26  OXT UNL d   1     -30.784  20.063  25.956  0.00  0.00    -0.772 OA
ATOM     27  HXT UNL d   1     -31.191  19.551  26.669  0.00  0.00     0.167 HD
ENDBRANCH  24  26
ENDBRANCH  22  24
ENDBRANCH  13  14
ENDBRANCH  12  13
ENDBRANCH   8  12
BRANCH   1  28
ATOM     28  O   UNL d   1     -21.831  25.191  21.842  0.00  0.00    -0.294 OA
BRANCH  28  29
ATOM     29  C   UNL d   1     -20.595  24.708  22.433  0.00  0.00     0.061 C 
ATOM     30  C   UNL d   1     -20.908  23.583  23.421  0.00  0.00     0.046 C 
ATOM     31  C   UNL d   1     -19.676  24.179  21.330  0.00  0.00     0.046 C 
ATOM     32  C   UNL d   1     -19.901  25.855  23.169  0.00  0.00     0.046 C 
ENDBRANCH  28  29
ENDBRANCH   1  28
TORSDOF 7
ENDMDL
