MODEL 1
REMARK VINA RESULT:     -11.2      0.000      0.000
REMARK  6 active torsions:
REMARK  status: ('A' for Active; 'I' for Inactive)
REMARK    1  A    between atoms: C_2  and  O_3 
REMARK    2  A    between atoms: C_2  and  C_33 
REMARK    3  A    between atoms: O_3  and  C_4 
REMARK    4  A    between atoms: C_6  and  N_7 
REMARK    5  A    between atoms: C_20  and  C_21 
REMARK       I    between atoms: C_21  and  N_23 
REMARK    6  A    between atoms: N_23  and  C_24 
ROOT
ATOM      1  C   UNL d   1     -24.694  23.355  22.638  0.00  0.00     0.087 A 
ATOM      2  C   UNL d   1     -25.953  22.810  22.824  0.00  0.00     0.073 A 
ATOM      3  C   UNL d   1     -26.801  23.336  23.788  0.00  0.00     0.104 A 
ATOM      4  C   UNL d   1     -26.392  24.413  24.572  0.00  0.00     0.146 A 
ATOM      5  F   UNL d   1     -27.224  24.919  25.509  0.00  0.00    -0.204 F 
ATOM      6  C   UNL d   1     -25.140  24.958  24.400  0.00  0.00     0.064 A 
ATOM      7  C   UNL d   1     -24.279  24.439  23.426  0.00  0.00     0.068 A 
ENDROOT
BRANCH   7   8
ATOM      8  C   UNL d   1     -22.942  25.023  23.235  0.00  0.00     0.259 C 
ATOM      9  O   UNL d   1     -22.812  26.044  22.586  0.00  0.00    -0.267 OA
ATOM     10  N   UNL d   1     -21.862  24.428  23.779  0.00  0.00    -0.319 N 
ATOM     11  H   UNL d   1     -21.953  23.572  24.225  0.00  0.00     0.169 HD
BRANCH  10  12
ATOM     12  C   UNL d   1     -20.606  25.045  23.698  0.00  0.00     0.096 A 
ATOM     13  C   UNL d   1     -20.255  26.030  24.612  0.00  0.00     0.066 A 
ATOM     14  C   UNL d   1     -19.015  26.638  24.530  0.00  0.00     0.068 A 
ATOM     15 CL   UNL d   1     -21.371  26.498  25.856  0.00  0.00    -0.082 Cl
ATOM     16  C   UNL d   1     -18.124  26.265  23.538  0.00  0.00     0.121 A 
ATOM     17  C   UNL d   1     -18.472  25.284  22.625  0.00  0.00     0.087 A 
ATOM     18  F   UNL d   1     -16.914  26.861  23.460  0.00  0.00    -0.206 F 
ATOM     19  C   UNL d   1     -19.707  24.669  22.705  0.00  0.00     0.147 A 
ATOM     20  F   UNL d   1     -20.044  23.707  21.818  0.00  0.00    -0.204 F 
ENDBRANCH  10  12
ENDBRANCH   7   8
BRANCH   1  21
ATOM     21  O   UNL d   1     -23.863  22.842  21.696  0.00  0.00    -0.336 OA
BRANCH  21  22
ATOM     22  C   UNL d   1     -23.970  23.376  20.376  0.00  0.00     0.232 C 
ATOM     23  C   UNL d   1     -22.590  23.826  19.892  0.00  0.00     0.049 C 
BRANCH  22  24
ATOM     24  C   UNL d   1     -24.515  22.301  19.433  0.00  0.00     0.413 C 
ATOM     25  F   UNL d   1     -25.801  21.932  19.841  0.00  0.00    -0.168 F 
ATOM     26  F   UNL d   1     -24.567  22.807  18.130  0.00  0.00    -0.168 F 
ATOM     27  F   UNL d   1     -23.676  21.183  19.467  0.00  0.00    -0.168 F 
ENDBRANCH  22  24
ENDBRANCH  21  22
ENDBRANCH   1  21
BRANCH   3  28
ATOM     28  N   UNL d   1     -28.072  22.784  23.973  0.00  0.00    -0.178 N 
ATOM     29  C   UNL d   1     -28.474  22.034  25.021  0.00  0.00     0.351 A 
ATOM     30  N   UNL d   1     -29.767  21.729  24.825  0.00  0.00    -0.284 N 
ATOM     31  O   UNL d   1     -27.789  21.697  25.972  0.00  0.00    -0.244 OA
ATOM     32  C   UNL d   1     -30.160  22.267  23.617  0.00  0.00     0.131 A 
ATOM     33  C   UNL d   1     -30.654  20.980  25.721  0.00  0.00     0.135 C 
ATOM     34  N   UNL d   1     -29.167  22.910  23.104  0.00  0.00    -0.149 NA
ATOM     35  C   UNL d   1     -31.541  22.089  23.030  0.00  0.00     0.081 C 
ATOM     36  C   UNL d   1     -32.486  21.659  24.161  0.00  0.00     0.009 C 
ATOM     37  C   UNL d   1     -31.860  20.483  24.916  0.00  0.00     0.021 C 
ENDBRANCH   3  28
TORSDOF 6
ENDMDL
