MODEL 1
REMARK VINA RESULT:      -9.1      0.000      0.000
REMARK  6 active torsions:
REMARK  status: ('A' for Active; 'I' for Inactive)
REMARK    1  A    between atoms: C_2  and  N_3 
REMARK    2  A    between atoms: C_4  and  C_5 
REMARK    3  A    between atoms: C_5  and  O_6 
REMARK    4  A    between atoms: N_8  and  C_9 
REMARK    5  A    between atoms: C_12  and  C_13 
REMARK    6  A    between atoms: N_17  and  C_18 
ROOT
ATOM      1  C   UNL d   1     -28.839  22.121  22.296  0.00  0.00     0.195 A 
ATOM      2  N   UNL d   1     -28.115  22.935  23.046  0.00  0.00    -0.225 NA
ATOM      3  C   UNL d   1     -26.826  23.136  22.795  0.00  0.00     0.083 A 
ATOM      4  C   UNL d   1     -26.011  24.032  23.617  0.00  0.00    -0.009 A 
ATOM      5  C   UNL d   1     -24.710  24.198  23.325  0.00  0.00     0.110 A 
ATOM      6  N   UNL d   1     -24.109  23.565  22.275  0.00  0.00    -0.285 N 
ATOM      7  C   UNL d   1     -24.780  22.722  21.465  0.00  0.00     0.265 A 
ATOM      8  O   UNL d   1     -24.210  22.171  20.540  0.00  0.00    -0.267 OA
ATOM      9  C   UNL d   1     -26.202  22.476  21.710  0.00  0.00     0.065 A 
ATOM     10  C   UNL d   1     -26.955  21.612  20.907  0.00  0.00     0.066 A 
ATOM     11  C   UNL d   1     -28.281  21.440  21.210  0.00  0.00     0.165 A 
ATOM     12  F   UNL d   1     -29.045  20.615  20.462  0.00  0.00    -0.202 F 
ENDROOT
BRANCH   1  13
ATOM     13  N   UNL d   1     -30.186  21.938  22.595  0.00  0.00    -0.159 N 
ATOM     14  N   UNL d   1     -31.263  22.112  21.715  0.00  0.00    -0.145 NA
ATOM     15  C   UNL d   1     -32.356  21.846  22.356  0.00  0.00     0.154 A 
ATOM     16  N   UNL d   1     -32.038  21.508  23.650  0.00  0.00    -0.283 N 
ATOM     17  C   UNL d   1     -30.698  21.568  23.787  0.00  0.00     0.352 A 
ATOM     18  O   UNL d   1     -30.067  21.330  24.800  0.00  0.00    -0.244 OA
BRANCH  15  19
ATOM     19  C   UNL d   1     -33.747  21.904  21.782  0.00  0.00     0.244 C 
BRANCH  19  20
ATOM     20  O   UNL d   1     -33.679  22.287  20.407  0.00  0.00    -0.393 OA
ATOM     21  H   UNL d   1     -33.008  22.959  20.218  0.00  0.00     0.209 HD
ENDBRANCH  19  20
ENDBRANCH  15  19
BRANCH  16  22
ATOM     22  C   UNL d   1     -32.993  21.145  24.700  0.00  0.00     0.131 C 
ATOM     23  C   UNL d   1     -32.779  19.685  25.100  0.00  0.00     0.027 C 
ENDBRANCH  16  22
ENDBRANCH   1  13
BRANCH   4  24
ATOM     24  C   UNL d   1     -26.626  24.759  24.785  0.00  0.00     0.014 C 
ATOM     25  C   UNL d   1     -26.761  23.799  25.969  0.00  0.00     0.015 C 
ATOM     26  C   UNL d   1     -25.733  25.936  25.182  0.00  0.00     0.015 C 
ENDBRANCH   4  24
BRANCH   6  27
ATOM     27  C   UNL d   1     -22.748  23.797  22.035  0.00  0.00     0.081 A 
ATOM     28  C   UNL d   1     -21.792  23.313  22.921  0.00  0.00     0.143 A 
ATOM     29  C   UNL d   1     -20.450  23.537  22.677  0.00  0.00     0.045 A 
ATOM     30  F   UNL d   1     -22.174  22.619  24.016  0.00  0.00    -0.204 F 
ATOM     31  C   UNL d   1     -20.059  24.247  21.556  0.00  0.00     0.010 A 
ATOM     32  C   UNL d   1     -21.009  24.734  20.677  0.00  0.00    -0.060 A 
ATOM     33  C   UNL d   1     -22.352  24.513  20.914  0.00  0.00     0.040 A 
ATOM     34  C   UNL d   1     -20.578  25.507  19.457  0.00  0.00     0.048 C 
ENDBRANCH   6  27
TORSDOF 6
ENDMDL
