MODEL 1
REMARK VINA RESULT:     -10.3      0.000      0.000
REMARK  7 active torsions:
REMARK  status: ('A' for Active; 'I' for Inactive)
REMARK    1  A    between atoms: C_2  and  N_4 
REMARK    2  A    between atoms: N_4  and  N_5 
REMARK    3  A    between atoms: N_4  and  C_16 
REMARK    4  A    between atoms: C_6  and  C_7 
REMARK    5  A    between atoms: C_12  and  C_13 
REMARK    6  A    between atoms: C_13  and  O_15 
REMARK    7  A    between atoms: C_18  and  C_19 
ROOT
ATOM      1  N   UNL d   1     -27.239  22.276  23.832  0.00  0.00    -0.242 N 
ENDROOT
BRANCH   1   2
ATOM      2  C   UNL d   1     -26.810  22.777  25.140  0.00  0.00     0.104 C 
ATOM      3  C   UNL d   1     -26.947  24.300  25.173  0.00  0.00     0.034 C 
ATOM      4  C   UNL d   1     -27.684  22.162  26.234  0.00  0.00     0.034 C 
ENDBRANCH   1   2
BRANCH   1   5
ATOM      5  N   UNL d   1     -28.545  21.798  23.660  0.00  0.00    -0.182 NA
ATOM      6  C   UNL d   1     -29.519  22.631  23.439  0.00  0.00     0.151 C 
BRANCH   6   7
ATOM      7  C   UNL d   1     -30.868  22.124  23.143  0.00  0.00    -0.000 A 
ATOM      8  C   UNL d   1     -31.614  21.465  24.143  0.00  0.00     0.049 A 
ATOM      9  C   UNL d   1     -32.894  20.995  23.848  0.00  0.00     0.019 A 
ATOM     10  C   UNL d   1     -33.419  21.171  22.584  0.00  0.00     0.001 A 
ATOM     11  C   UNL d   1     -32.683  21.814  21.600  0.00  0.00     0.001 A 
ATOM     12  C   UNL d   1     -31.416  22.286  21.869  0.00  0.00     0.014 A 
BRANCH   8  13
ATOM     13  C   UNL d   1     -31.048  21.281  25.490  0.00  0.00     0.177 C 
ATOM     14  O   UNL d   1     -31.275  22.098  26.362  0.00  0.00    -0.646 OA
BRANCH  13  15
ATOM     15  O   UNL d   1     -30.280  20.206  25.757  0.00  0.00    -0.773 OA
ATOM     16  H   UNL d   1     -30.714  19.445  26.166  0.00  0.00     0.167 HD
ENDBRANCH  13  15
ENDBRANCH   8  13
ENDBRANCH   6   7
ENDBRANCH   1   5
BRANCH   1  17
ATOM     17  C   UNL d   1     -26.356  22.274  22.767  0.00  0.00     0.190 A 
ATOM     18  S   UNL d   1     -26.546  21.338  21.287  0.00  0.00    -0.060 SA
ATOM     19  C   UNL d   1     -25.033  22.000  20.672  0.00  0.00     0.086 A 
ATOM     20  C   UNL d   1     -24.530  22.833  21.602  0.00  0.00     0.078 A 
ATOM     21  N   UNL d   1     -25.255  22.960  22.704  0.00  0.00    -0.222 NA
BRANCH  20  22
ATOM     22  C   UNL d   1     -23.253  23.560  21.405  0.00  0.00     0.015 A 
ATOM     23  C   UNL d   1     -22.275  23.538  22.399  0.00  0.00     0.046 A 
ATOM     24  C   UNL d   1     -21.087  24.218  22.211  0.00  0.00     0.025 A 
ATOM     25 CL   UNL d   1     -22.551  22.660  23.872  0.00  0.00    -0.083 Cl
ATOM     26  C   UNL d   1     -20.867  24.918  21.038  0.00  0.00     0.002 A 
ATOM     27  C   UNL d   1     -21.833  24.942  20.049  0.00  0.00     0.001 A 
ATOM     28  C   UNL d   1     -23.022  24.264  20.223  0.00  0.00     0.015 A 
ENDBRANCH  20  22
ENDBRANCH   1  17
TORSDOF 7
ENDMDL
