MODEL 1
REMARK VINA RESULT:     -11.3      0.000      0.000
REMARK  8 active torsions:
REMARK  status: ('A' for Active; 'I' for Inactive)
REMARK    1  A    between atoms: O_2  and  C_3 
REMARK    2  A    between atoms: C_5  and  C_6 
REMARK    3  A    between atoms: C_8  and  C_9 
REMARK    4  A    between atoms: C_9  and  O_11 
REMARK    5  A    between atoms: C_21  and  O_22 
REMARK    6  A    between atoms: O_22  and  C_23 
REMARK    7  A    between atoms: C_23  and  C_24 
REMARK       I    between atoms: C_24  and  N_26 
REMARK    8  A    between atoms: N_26  and  C_27 
ROOT
ATOM      1  C   UNL d   1     -25.585  23.096  23.085  0.00  0.00     0.102 A 
ATOM      2  C   UNL d   1     -26.940  22.968  23.331  0.00  0.00     0.053 A 
ATOM      3  C   UNL d   1     -27.709  22.109  22.547  0.00  0.00    -0.004 A 
ATOM      4  C   UNL d   1     -27.112  21.390  21.511  0.00  0.00     0.017 A 
ATOM      5  C   UNL d   1     -25.761  21.523  21.269  0.00  0.00     0.040 A 
ATOM      6  C   UNL d   1     -24.993  22.373  22.051  0.00  0.00     0.102 A 
ENDROOT
BRANCH   3   7
ATOM      7  C   UNL d   1     -29.161  21.963  22.812  0.00  0.00     0.069 A 
ATOM      8  N   UNL d   1     -30.005  22.093  21.811  0.00  0.00    -0.247 NA
ATOM      9  C   UNL d   1     -31.324  21.970  21.970  0.00  0.00     0.068 A 
ATOM     10  C   UNL d   1     -31.861  21.702  23.254  0.00  0.00     0.010 A 
ATOM     11  C   UNL d   1     -32.202  22.108  20.878  0.00  0.00     0.032 A 
ATOM     12  C   UNL d   1     -30.943  21.559  24.383  0.00  0.00     0.052 A 
ATOM     13  C   UNL d   1     -33.246  21.579  23.416  0.00  0.00     0.015 A 
ATOM     14  C   UNL d   1     -29.587  21.697  24.123  0.00  0.00     0.051 A 
ATOM     15  C   UNL d   1     -34.066  21.719  22.337  0.00  0.00     0.001 A 
ATOM     16  C   UNL d   1     -33.543  21.982  21.072  0.00  0.00     0.002 A 
BRANCH  12  17
ATOM     17  C   UNL d   1     -31.439  21.278  25.747  0.00  0.00     0.177 C 
ATOM     18  O   UNL d   1     -31.672  22.194  26.508  0.00  0.00    -0.646 OA
BRANCH  17  19
ATOM     19  O   UNL d   1     -31.633  20.005  26.144  0.00  0.00    -0.773 OA
ATOM     20  H   UNL d   1     -31.365  19.781  27.045  0.00  0.00     0.167 HD
ENDBRANCH  17  19
ENDBRANCH  12  17
ENDBRANCH   3   7
BRANCH   1  21
ATOM     21  O   UNL d   1     -24.831  23.930  23.850  0.00  0.00    -0.353 OA
ATOM     22  C   UNL d   1     -25.241  25.297  23.917  0.00  0.00     0.210 C 
ENDBRANCH   1  21
BRANCH   6  23
ATOM     23  O   UNL d   1     -23.662  22.500  21.810  0.00  0.00    -0.339 OA
BRANCH  23  24
ATOM     24  C   UNL d   1     -23.258  23.563  20.946  0.00  0.00     0.278 C 
BRANCH  24  25
ATOM     25  C   UNL d   1     -22.300  24.469  21.677  0.00  0.00     0.246 C 
ATOM     26  O   UNL d   1     -21.677  25.312  21.068  0.00  0.00    -0.271 OA
ATOM     27  N   UNL d   1     -22.137  24.341  23.009  0.00  0.00    -0.325 N 
ATOM     28  H   UNL d   1     -22.682  23.713  23.506  0.00  0.00     0.169 HD
BRANCH  27  29
ATOM     29  C   UNL d   1     -21.179  25.117  23.673  0.00  0.00     0.034 A 
ATOM     30  C   UNL d   1     -21.560  26.276  24.336  0.00  0.00     0.031 A 
ATOM     31  C   UNL d   1     -20.613  27.039  24.990  0.00  0.00     0.026 A 
ATOM     32  C   UNL d   1     -19.285  26.648  24.988  0.00  0.00     0.034 A 
ATOM     33  C   UNL d   1     -18.903  25.492  24.328  0.00  0.00     0.026 A 
ATOM     34 CL   UNL d   1     -18.097  27.608  25.812  0.00  0.00    -0.084 Cl
ATOM     35  C   UNL d   1     -19.847  24.724  23.676  0.00  0.00     0.031 A 
ENDBRANCH  27  29
ENDBRANCH  24  25
ENDBRANCH  23  24
ENDBRANCH   6  23
TORSDOF 8
ENDMDL
