MODEL 1
REMARK VINA RESULT:     -10.7      0.000      0.000
REMARK  9 active torsions:
REMARK  status: ('A' for Active; 'I' for Inactive)
REMARK    1  A    between atoms: O_2  and  C_3 
REMARK    2  A    between atoms: C_3  and  C_5 
REMARK    3  A    between atoms: C_11  and  C_12 
REMARK    4  A    between atoms: C_12  and  C_13 
REMARK    5  A    between atoms: C_13  and  C_14 
REMARK    6  A    between atoms: C_14  and  C_15 
REMARK    7  A    between atoms: C_15  and  C_16 
REMARK    8  A    between atoms: CA_17  and  C_18 
REMARK    9  A    between atoms: C_18  and  OXT_20 
ROOT
ATOM      1  C   UNL d   1     -26.946  23.535  24.317  0.00  0.00     0.005 C 
ENDROOT
BRANCH   1   2
ATOM      2  C   UNL d   1     -27.264  22.371  23.378  0.00  0.00     0.038 C 
BRANCH   2   3
ATOM      3  C   UNL d   1     -28.756  22.168  23.316  0.00  0.00    -0.057 A 
ATOM      4  C   UNL d   1     -29.411  21.665  24.398  0.00  0.00     0.019 A 
ATOM      5  C   UNL d   1     -30.803  21.480  24.345  0.00  0.00    -0.024 A 
ATOM      6  C   UNL d   1     -31.514  20.967  25.442  0.00  0.00     0.012 A 
ATOM      7  C   UNL d   1     -31.499  21.813  23.156  0.00  0.00    -0.010 A 
ATOM      8  C   UNL d   1     -32.863  20.788  25.372  0.00  0.00     0.002 A 
ATOM      9  C   UNL d   1     -33.586  21.101  24.229  0.00  0.00     0.018 A 
ATOM     10  C   UNL d   1     -32.945  21.613  23.107  0.00  0.00     0.050 A 
ATOM     11  C   UNL d   1     -30.793  22.324  22.061  0.00  0.00     0.014 A 
ATOM     12  C   UNL d   1     -29.444  22.495  22.149  0.00  0.00     0.008 A 
BRANCH  10  13
ATOM     13  C   UNL d   1     -33.710  21.946  21.892  0.00  0.00     0.293 C 
ATOM     14  O   UNL d   1     -34.367  22.967  21.849  0.00  0.00    -0.259 OA
BRANCH  13  15
ATOM     15  O   UNL d   1     -33.679  21.118  20.829  0.00  0.00    -0.322 OA
ATOM     16  C   UNL d   1     -33.956  19.715  21.078  0.00  0.00     0.213 C 
ENDBRANCH  13  15
ENDBRANCH  10  13
ENDBRANCH   2   3
ENDBRANCH   1   2
BRANCH   1  17
ATOM     17  C   UNL d   1     -25.712  24.281  23.805  0.00  0.00     0.005 C 
BRANCH  17  18
ATOM     18  C   UNL d   1     -24.633  23.271  23.410  0.00  0.00     0.047 C 
BRANCH  18  19
ATOM     19  C   UNL d   1     -23.847  23.806  22.241  0.00  0.00     0.044 A 
ATOM     20  C   UNL d   1     -22.964  24.968  22.398  0.00  0.00     0.258 A 
ATOM     21  N   UNL d   1     -22.278  25.415  21.325  0.00  0.00    -0.275 N 
ATOM     22  O   UNL d   1     -22.851  25.519  23.476  0.00  0.00    -0.267 OA
ATOM     23  C   UNL d   1     -22.406  24.804  20.133  0.00  0.00     0.327 A 
ATOM     24  H   UNL d   1     -21.691  26.182  21.412  0.00  0.00     0.173 HD
ATOM     25  N   UNL d   1     -23.208  23.740  19.966  0.00  0.00    -0.302 N 
ATOM     26  O   UNL d   1     -21.777  25.227  19.182  0.00  0.00    -0.247 OA
ATOM     27  CA  UNL d   1     -23.935  23.223  21.017  0.00  0.00     0.122 A 
ATOM     28  H   UNL d   1     -23.274  23.325  19.091  0.00  0.00     0.171 HD
BRANCH  27  29
ATOM     29  C   UNL d   1     -24.809  22.043  20.812  0.00  0.00     0.194 C 
ATOM     30  O   UNL d   1     -25.758  22.114  20.057  0.00  0.00    -0.645 OA
BRANCH  29  31
ATOM     31  OXT UNL d   1     -24.552  20.892  21.462  0.00  0.00    -0.772 OA
ATOM     32  HXT UNL d   1     -24.608  20.910  22.427  0.00  0.00     0.167 HD
ENDBRANCH  29  31
ENDBRANCH  27  29
ENDBRANCH  18  19
ENDBRANCH  17  18
ENDBRANCH   1  17
TORSDOF 9
ENDMDL
