MODEL 1
REMARK VINA RESULT:     -13.2      0.000      0.000
REMARK  3 active torsions:
REMARK  status: ('A' for Active; 'I' for Inactive)
REMARK    1  A    between atoms: O_2  and  C_3 
REMARK    2  A    between atoms: C_7  and  C_8 
REMARK    3  A    between atoms: C_12  and  N_13 
ROOT
ATOM      1  C   UNL d   1     -24.559  23.398  22.626  0.00  0.00     0.051 A 
ATOM      2  C   UNL d   1     -25.121  22.143  22.383  0.00  0.00     0.132 A 
ATOM      3  F   UNL d   1     -24.545  21.304  21.495  0.00  0.00    -0.205 F 
ATOM      4  C   UNL d   1     -26.264  21.759  23.056  0.00  0.00     0.075 A 
ATOM      5  C   UNL d   1     -26.861  22.622  23.966  0.00  0.00     0.066 A 
ATOM      6  C   UNL d   1     -26.308  23.874  24.206  0.00  0.00     0.075 A 
ATOM      7  C   UNL d   1     -25.162  24.264  23.541  0.00  0.00     0.132 A 
ATOM      8  F   UNL d   1     -24.625  25.481  23.775  0.00  0.00    -0.205 F 
ENDROOT
BRANCH   5   9
ATOM      9  N   UNL d   1     -28.021  22.232  24.641  0.00  0.00    -0.209 N 
ATOM     10  C   UNL d   1     -29.259  22.092  24.089  0.00  0.00     0.146 A 
ATOM     11  C   UNL d   1     -30.088  21.686  25.129  0.00  0.00     0.164 A 
ATOM     12  C   UNL d   1     -29.795  22.262  22.732  0.00  0.00     0.214 A 
ATOM     13  N   UNL d   1     -29.308  21.620  26.217  0.00  0.00    -0.125 NA
ATOM     14  C   UNL d   1     -31.520  21.435  24.883  0.00  0.00     0.216 A 
ATOM     15  N   UNL d   1     -28.107  21.945  25.894  0.00  0.00    -0.059 NA
ATOM     16  C   UNL d   1     -32.073  21.609  23.522  0.00  0.00     0.031 A 
ATOM     17  O   UNL d   1     -32.244  21.086  25.795  0.00  0.00    -0.285 OA
ATOM     18  C   UNL d   1     -31.229  22.013  22.472  0.00  0.00     0.031 A 
ATOM     19  C   UNL d   1     -33.421  21.375  23.274  0.00  0.00     0.016 A 
ATOM     20  C   UNL d   1     -31.751  22.176  21.192  0.00  0.00     0.016 A 
ATOM     21  C   UNL d   1     -33.097  21.940  20.961  0.00  0.00     0.001 A 
ATOM     22  C   UNL d   1     -33.926  21.543  21.995  0.00  0.00     0.001 A 
ATOM     23  O   UNL d   1     -29.062  22.612  21.826  0.00  0.00    -0.285 OA
ENDBRANCH   5   9
BRANCH   1  24
ATOM     24  C   UNL d   1     -23.329  23.813  21.910  0.00  0.00    -0.017 A 
ATOM     25  C   UNL d   1     -23.403  24.243  20.586  0.00  0.00     0.012 A 
ATOM     26  C   UNL d   1     -22.256  24.628  19.921  0.00  0.00     0.004 A 
ATOM     27  C   UNL d   1     -21.033  24.590  20.565  0.00  0.00     0.037 A 
ATOM     28  C   UNL d   1     -20.952  24.164  21.883  0.00  0.00     0.069 A 
ATOM     29  C   UNL d   1     -22.098  23.780  22.559  0.00  0.00     0.049 A 
BRANCH  28  30
ATOM     30  O   UNL d   1     -19.747  24.127  22.512  0.00  0.00    -0.356 OA
ATOM     31  C   UNL d   1     -19.680  24.694  23.821  0.00  0.00     0.210 C 
ENDBRANCH  28  30
ENDBRANCH   1  24
TORSDOF 3
ENDMDL
