MODEL 1
REMARK VINA RESULT:     -12.1      0.000      0.000
REMARK  7 active torsions:
REMARK  status: ('A' for Active; 'I' for Inactive)
REMARK    1  A    between atoms: C_4  and  C_5 
REMARK    2  A    between atoms: C_5  and  O_7 
REMARK    3  A    between atoms: C_10  and  C_11 
REMARK    4  A    between atoms: C_14  and  C_15 
REMARK    5  A    between atoms: C_18  and  O_19 
REMARK    6  A    between atoms: O_19  and  C_20 
REMARK    7  A    between atoms: C_20  and  C_21 
ROOT
ATOM      1  C   UNL d   1     -26.766  22.890  23.001  0.00  0.00     0.010 A 
ATOM      2  C   UNL d   1     -25.926  22.161  22.154  0.00  0.00     0.016 A 
ATOM      3  C   UNL d   1     -24.588  22.472  22.079  0.00  0.00     0.013 A 
ATOM      4  C   UNL d   1     -24.066  23.507  22.856  0.00  0.00    -0.026 A 
ATOM      5  C   UNL d   1     -24.902  24.231  23.707  0.00  0.00     0.013 A 
ATOM      6  C   UNL d   1     -26.243  23.925  23.778  0.00  0.00     0.016 A 
ENDROOT
BRANCH   1   7
ATOM      7  C   UNL d   1     -28.204  22.562  23.077  0.00  0.00     0.139 A 
ATOM      8  N   UNL d   1     -28.815  22.085  24.137  0.00  0.00    -0.227 NA
ATOM      9  C   UNL d   1     -30.118  21.900  23.866  0.00  0.00     0.102 A 
ATOM     10  C   UNL d   1     -31.209  21.420  24.626  0.00  0.00     0.069 A 
ATOM     11  C   UNL d   1     -30.330  22.293  22.532  0.00  0.00     0.064 A 
ATOM     12  C   UNL d   1     -32.474  21.353  24.042  0.00  0.00     0.027 A 
ATOM     13  C   UNL d   1     -32.657  21.740  22.728  0.00  0.00    -0.059 A 
ATOM     14  C   UNL d   1     -34.030  21.655  22.112  0.00  0.00     0.048 C 
ATOM     15  C   UNL d   1     -31.597  22.208  21.976  0.00  0.00     0.038 A 
ATOM     16  N   UNL d   1     -29.101  22.708  22.056  0.00  0.00    -0.338 N 
ATOM     17  H   UNL d   1     -28.910  23.041  21.163  0.00  0.00     0.167 HD
BRANCH  10  18
ATOM     18  C   UNL d   1     -31.014  21.003  26.024  0.00  0.00     0.178 C 
ATOM     19  O   UNL d   1     -31.569  20.007  26.444  0.00  0.00    -0.646 OA
BRANCH  18  20
ATOM     20  O   UNL d   1     -30.220  21.726  26.838  0.00  0.00    -0.773 OA
ATOM     21  H   UNL d   1     -30.617  22.062  27.654  0.00  0.00     0.167 HD
ENDBRANCH  18  20
ENDBRANCH  10  18
ENDBRANCH   1   7
BRANCH   4  22
ATOM     22  C   UNL d   1     -22.623  23.836  22.779  0.00  0.00    -0.026 A 
ATOM     23  C   UNL d   1     -21.879  23.993  23.948  0.00  0.00     0.015 A 
ATOM     24  C   UNL d   1     -20.537  24.300  23.873  0.00  0.00     0.037 A 
ATOM     25  C   UNL d   1     -19.926  24.451  22.636  0.00  0.00     0.069 A 
ATOM     26  C   UNL d   1     -20.663  24.293  21.469  0.00  0.00     0.037 A 
ATOM     27  C   UNL d   1     -22.005  23.982  21.538  0.00  0.00     0.015 A 
BRANCH  25  28
ATOM     28  O   UNL d   1     -18.602  24.751  22.565  0.00  0.00    -0.347 OA
BRANCH  28  29
ATOM     29  C   UNL d   1     -18.126  25.787  23.427  0.00  0.00     0.215 C 
BRANCH  29  30
ATOM     30  C   UNL d   1     -16.852  26.364  22.863  0.00  0.00    -0.017 A 
ATOM     31  C   UNL d   1     -15.853  25.531  22.399  0.00  0.00     0.125 A 
ATOM     32  N   UNL d   1     -14.736  26.029  21.904  0.00  0.00    -0.272 NA
ATOM     33  C   UNL d   1     -14.528  27.328  21.832  0.00  0.00     0.116 A 
ATOM     34  C   UNL d   1     -15.483  28.223  22.278  0.00  0.00     0.020 A 
ATOM     35  C   UNL d   1     -16.673  27.738  22.799  0.00  0.00     0.012 A 
ENDBRANCH  29  30
ENDBRANCH  28  29
ENDBRANCH  25  28
ENDBRANCH   4  22
TORSDOF 7
ENDMDL
