MODEL 1
REMARK VINA RESULT:      -8.7      0.000      0.000
REMARK  7 active torsions:
REMARK  status: ('A' for Active; 'I' for Inactive)
REMARK    1  A    between atoms: C_2  and  O_3 
REMARK    2  A    between atoms: C_2  and  C_34 
REMARK    3  A    between atoms: O_3  and  C_4 
REMARK    4  A    between atoms: C_6  and  N_7 
REMARK    5  A    between atoms: C_20  and  C_21 
REMARK       I    between atoms: C_21  and  N_23 
REMARK    6  A    between atoms: N_23  and  C_24 
REMARK    7  A    between atoms: C_29  and  C_30 
ROOT
ATOM      1  C   UNL d   1     -20.269  25.258  24.238  0.00  0.00     0.087 A 
ATOM      2  C   UNL d   1     -21.548  24.737  24.145  0.00  0.00     0.073 A 
ATOM      3  C   UNL d   1     -22.014  24.252  22.931  0.00  0.00     0.104 A 
ATOM      4  C   UNL d   1     -21.197  24.289  21.800  0.00  0.00     0.146 A 
ATOM      5  F   UNL d   1     -21.658  23.816  20.621  0.00  0.00    -0.204 F 
ATOM      6  C   UNL d   1     -19.923  24.805  21.883  0.00  0.00     0.064 A 
ATOM      7  C   UNL d   1     -19.448  25.300  23.102  0.00  0.00     0.068 A 
ENDROOT
BRANCH   7   8
ATOM      8  C   UNL d   1     -18.088  25.859  23.193  0.00  0.00     0.259 C 
ATOM      9  O   UNL d   1     -17.192  25.388  22.520  0.00  0.00    -0.267 OA
ATOM     10  N   UNL d   1     -17.838  26.892  24.022  0.00  0.00    -0.322 N 
ATOM     11  H   UNL d   1     -18.532  27.217  24.616  0.00  0.00     0.169 HD
BRANCH  10  12
ATOM     12  C   UNL d   1     -16.576  27.495  24.026  0.00  0.00     0.050 A 
ATOM     13  C   UNL d   1     -15.629  27.121  24.970  0.00  0.00     0.074 A 
ATOM     14  C   UNL d   1     -14.384  27.718  24.972  0.00  0.00     0.018 A 
ATOM     15  C   UNL d   1     -14.080  28.688  24.034  0.00  0.00     0.001 A 
ATOM     16  C   UNL d   1     -15.021  29.063  23.093  0.00  0.00     0.002 A 
ATOM     17  C   UNL d   1     -16.266  28.466  23.082  0.00  0.00     0.030 A 
BRANCH  13  18
ATOM     18  C   UNL d   1     -15.959  26.063  25.991  0.00  0.00     0.419 C 
ATOM     19  F   UNL d   1     -16.037  24.816  25.362  0.00  0.00    -0.166 F 
ATOM     20  F   UNL d   1     -14.959  26.030  26.969  0.00  0.00    -0.166 F 
ATOM     21  F   UNL d   1     -17.188  26.361  26.591  0.00  0.00    -0.166 F 
ENDBRANCH  13  18
ENDBRANCH  10  12
ENDBRANCH   7   8
BRANCH   1  22
ATOM     22  O   UNL d   1     -19.812  25.733  25.426  0.00  0.00    -0.345 OA
BRANCH  22  23
ATOM     23  C   UNL d   1     -20.768  26.356  26.285  0.00  0.00     0.129 C 
ATOM     24  C   UNL d   1     -20.562  25.865  27.718  0.00  0.00     0.040 C 
BRANCH  23  25
ATOM     25  C   UNL d   1     -20.585  27.875  26.235  0.00  0.00     0.015 C 
ATOM     26  C   UNL d   1     -19.286  28.256  26.951  0.00  0.00     0.007 C 
ATOM     27  C   UNL d   1     -19.104  29.774  26.901  0.00  0.00     0.000 C 
ATOM     28  C   UNL d   1     -20.287  30.454  27.594  0.00  0.00     0.000 C 
ATOM     29  C   UNL d   1     -21.585  30.072  26.879  0.00  0.00     0.000 C 
ATOM     30  C   UNL d   1     -21.767  28.554  26.928  0.00  0.00     0.007 C 
ENDBRANCH  23  25
ENDBRANCH  22  23
ENDBRANCH   1  22
BRANCH   3  31
ATOM     31  N   UNL d   1     -23.305  23.728  22.840  0.00  0.00    -0.178 N 
ATOM     32  C   UNL d   1     -24.425  24.260  23.375  0.00  0.00     0.351 A 
ATOM     33  N   UNL d   1     -25.451  23.462  23.034  0.00  0.00    -0.284 N 
ATOM     34  O   UNL d   1     -24.493  25.276  24.043  0.00  0.00    -0.244 OA
ATOM     35  C   UNL d   1     -24.952  22.401  22.308  0.00  0.00     0.131 A 
ATOM     36  C   UNL d   1     -26.874  23.658  23.334  0.00  0.00     0.135 C 
ATOM     37  N   UNL d   1     -23.679  22.552  22.170  0.00  0.00    -0.149 NA
ATOM     38  C   UNL d   1     -25.803  21.264  21.791  0.00  0.00     0.081 C 
ATOM     39  C   UNL d   1     -27.266  21.725  21.796  0.00  0.00     0.009 C 
ATOM     40  C   UNL d   1     -27.599  22.319  23.170  0.00  0.00     0.021 C 
ENDBRANCH   3  31
TORSDOF 7
ENDMDL
