MODEL 1
REMARK VINA RESULT:      -9.2      0.000      0.000
REMARK  6 active torsions:
REMARK  status: ('A' for Active; 'I' for Inactive)
REMARK    1  A    between atoms: C_2  and  O_3 
REMARK    2  A    between atoms: O_3  and  C_4 
REMARK    3  A    between atoms: C_4  and  C_6 
REMARK    4  A    between atoms: C_8  and  N_9 
REMARK    5  A    between atoms: N_9  and  C_10 
REMARK    6  A    between atoms: C_18  and  C_19 
ROOT
ATOM      1  C   UNL d   1     -22.964  23.990  20.986  0.00  0.00     0.113 A 
ATOM      2  S   UNL d   1     -23.865  22.685  20.221  0.00  0.00    -0.044 SA
ATOM      3  C   UNL d   1     -24.607  22.300  21.711  0.00  0.00     0.172 A 
ATOM      4  N   UNL d   1     -24.191  23.092  22.654  0.00  0.00    -0.222 NA
ATOM      5  C   UNL d   1     -23.309  24.011  22.323  0.00  0.00     0.093 A 
ENDROOT
BRANCH   3   6
ATOM      6  N   UNL d   1     -25.523  21.284  21.891  0.00  0.00    -0.335 N 
ATOM      7  H   UNL d   1     -25.231  20.359  21.877  0.00  0.00     0.168 HD
BRANCH   6   8
ATOM      8  C   UNL d   1     -26.873  21.588  22.093  0.00  0.00     0.034 A 
ATOM      9  C   UNL d   1     -27.754  21.589  21.019  0.00  0.00     0.031 A 
ATOM     10  C   UNL d   1     -29.087  21.889  21.222  0.00  0.00     0.026 A 
ATOM     11  C   UNL d   1     -29.545  22.189  22.493  0.00  0.00     0.034 A 
ATOM     12  C   UNL d   1     -28.668  22.188  23.564  0.00  0.00     0.026 A 
ATOM     13 CL   UNL d   1     -31.221  22.566  22.744  0.00  0.00    -0.084 Cl
ATOM     14  C   UNL d   1     -27.336  21.884  23.368  0.00  0.00     0.031 A 
ENDBRANCH   6   8
ENDBRANCH   3   6
BRANCH   1  15
ATOM     15  C   UNL d   1     -22.046  24.856  20.347  0.00  0.00     0.302 C 
ATOM     16  O   UNL d   1     -22.315  25.334  19.261  0.00  0.00    -0.259 OA
BRANCH  15  17
ATOM     17  O   UNL d   1     -20.872  25.154  20.943  0.00  0.00    -0.317 OA
BRANCH  17  18
ATOM     18  C   UNL d   1     -19.903  24.108  21.024  0.00  0.00     0.174 C 
ATOM     19  C   UNL d   1     -18.828  24.486  22.045  0.00  0.00     0.034 C 
ENDBRANCH  17  18
ENDBRANCH  15  17
ENDBRANCH   1  15
BRANCH   5  20
ATOM     20  C   UNL d   1     -22.742  24.978  23.292  0.00  0.00    -0.006 A 
ATOM     21  C   UNL d   1     -23.241  26.279  23.357  0.00  0.00     0.014 A 
ATOM     22  C   UNL d   1     -22.709  27.175  24.261  0.00  0.00     0.001 A 
ATOM     23  C   UNL d   1     -21.683  26.786  25.103  0.00  0.00     0.000 A 
ATOM     24  C   UNL d   1     -21.182  25.496  25.043  0.00  0.00     0.001 A 
ATOM     25  C   UNL d   1     -21.711  24.590  24.147  0.00  0.00     0.014 A 
ENDBRANCH   5  20
TORSDOF 6
ENDMDL
