MODEL 1
REMARK VINA RESULT:     -13.6      0.000      0.000
REMARK  7 active torsions:
REMARK  status: ('A' for Active; 'I' for Inactive)
REMARK    1  A    between atoms: C_2  and  O_3 
REMARK    2  A    between atoms: C_2  and  C_4 
REMARK    3  A    between atoms: C_10  and  C_11 
REMARK    4  A    between atoms: C_16  and  C_17 
REMARK    5  A    between atoms: C_21  and  O_22 
REMARK    6  A    between atoms: O_22  and  C_23 
REMARK    7  A    between atoms: C_23  and  C_24 
ROOT
ATOM      1  C   UNL d   1     -26.951  22.633  23.207  0.00  0.00     0.093 A 
ATOM      2  C   UNL d   1     -26.304  21.900  22.207  0.00  0.00     0.173 A 
ATOM      3  F   UNL d   1     -26.911  20.827  21.654  0.00  0.00    -0.202 F 
ATOM      4  C   UNL d   1     -25.044  22.275  21.781  0.00  0.00     0.170 A 
ATOM      5  F   UNL d   1     -24.421  21.570  20.812  0.00  0.00    -0.202 F 
ATOM      6  C   UNL d   1     -24.412  23.379  22.357  0.00  0.00     0.058 A 
ATOM      7  C   UNL d   1     -25.055  24.109  23.359  0.00  0.00     0.170 A 
ATOM      8  F   UNL d   1     -24.443  25.178  23.914  0.00  0.00    -0.202 F 
ATOM      9  C   UNL d   1     -26.317  23.738  23.782  0.00  0.00     0.173 A 
ATOM     10  F   UNL d   1     -26.939  24.444  24.752  0.00  0.00    -0.202 F 
ENDROOT
BRANCH   1  11
ATOM     11  C   UNL d   1     -28.300  22.236  23.657  0.00  0.00     0.145 A 
ATOM     12  N   UNL d   1     -28.586  21.746  24.839  0.00  0.00    -0.228 NA
ATOM     13  C   UNL d   1     -29.917  21.491  24.913  0.00  0.00     0.087 A 
ATOM     14  C   UNL d   1     -30.738  20.964  25.914  0.00  0.00     0.034 A 
ATOM     15  C   UNL d   1     -30.480  21.865  23.680  0.00  0.00     0.080 A 
ATOM     16  C   UNL d   1     -32.091  20.817  25.694  0.00  0.00     0.003 A 
ATOM     17  C   UNL d   1     -32.655  21.188  24.487  0.00  0.00     0.021 A 
ATOM     18  C   UNL d   1     -31.858  21.717  23.471  0.00  0.00     0.066 A 
ATOM     19  N   UNL d   1     -29.443  22.335  22.908  0.00  0.00    -0.337 N 
ATOM     20  H   UNL d   1     -29.508  22.671  22.001  0.00  0.00     0.167 HD
BRANCH  18  21
ATOM     21  C   UNL d   1     -32.460  22.112  22.185  0.00  0.00     0.178 C 
ATOM     22  O   UNL d   1     -31.786  22.115  21.174  0.00  0.00    -0.646 OA
BRANCH  21  23
ATOM     23  O   UNL d   1     -33.759  22.468  22.130  0.00  0.00    -0.773 OA
ATOM     24  H   UNL d   1     -34.350  21.893  21.626  0.00  0.00     0.167 HD
ENDBRANCH  21  23
ENDBRANCH  18  21
ENDBRANCH   1  11
BRANCH   6  25
ATOM     25  C   UNL d   1     -23.058  23.777  21.904  0.00  0.00    -0.017 A 
ATOM     26  C   UNL d   1     -21.989  23.762  22.798  0.00  0.00     0.049 A 
ATOM     27  C   UNL d   1     -20.726  24.129  22.368  0.00  0.00     0.070 A 
ATOM     28  C   UNL d   1     -20.529  24.524  21.052  0.00  0.00     0.037 A 
ATOM     29  C   UNL d   1     -21.590  24.545  20.165  0.00  0.00     0.004 A 
ATOM     30  C   UNL d   1     -22.851  24.174  20.583  0.00  0.00     0.012 A 
BRANCH  27  31
ATOM     31  O   UNL d   1     -19.680  24.111  23.235  0.00  0.00    -0.347 OA
BRANCH  31  32
ATOM     32  C   UNL d   1     -19.083  25.368  23.560  0.00  0.00     0.214 C 
BRANCH  32  33
ATOM     33  C   UNL d   1     -19.928  26.074  24.588  0.00  0.00    -0.034 A 
ATOM     34  C   UNL d   1     -19.578  26.021  25.925  0.00  0.00     0.009 A 
ATOM     35  C   UNL d   1     -20.353  26.670  26.867  0.00  0.00     0.001 A 
ATOM     36  C   UNL d   1     -21.477  27.372  26.474  0.00  0.00     0.000 A 
ATOM     37  C   UNL d   1     -21.826  27.426  25.137  0.00  0.00     0.001 A 
ATOM     38  C   UNL d   1     -21.048  26.781  24.194  0.00  0.00     0.009 A 
ENDBRANCH  32  33
ENDBRANCH  31  32
ENDBRANCH  27  31
ENDBRANCH   6  25
TORSDOF 7
ENDMDL
