MODEL 1
REMARK VINA RESULT:      -8.7      0.000      0.000
REMARK  7 active torsions:
REMARK  status: ('A' for Active; 'I' for Inactive)
REMARK    1  A    between atoms: C_2  and  O_3 
REMARK    2  A    between atoms: C_2  and  C_35 
REMARK    3  A    between atoms: O_3  and  C_4 
REMARK    4  A    between atoms: C_6  and  N_7 
REMARK    5  A    between atoms: C_20  and  C_21 
REMARK       I    between atoms: C_21  and  N_23 
REMARK    6  A    between atoms: N_23  and  C_24 
REMARK    7  A    between atoms: C_28  and  C_29 
REMARK       I    between atoms: C_29  and  N_31 
ROOT
ATOM      1  C   UNL d   1     -21.566  25.644  23.933  0.00  0.00     0.087 A 
ATOM      2  C   UNL d   1     -22.863  25.188  23.771  0.00  0.00     0.073 A 
ATOM      3  C   UNL d   1     -23.095  23.872  23.395  0.00  0.00     0.104 A 
ATOM      4  C   UNL d   1     -22.025  23.004  23.179  0.00  0.00     0.146 A 
ATOM      5  F   UNL d   1     -22.259  21.725  22.812  0.00  0.00    -0.204 F 
ATOM      6  C   UNL d   1     -20.731  23.447  23.337  0.00  0.00     0.064 A 
ATOM      7  C   UNL d   1     -20.489  24.774  23.710  0.00  0.00     0.068 A 
ENDROOT
BRANCH   7   8
ATOM      8  C   UNL d   1     -19.106  25.254  23.876  0.00  0.00     0.259 C 
ATOM      9  O   UNL d   1     -18.440  24.878  24.822  0.00  0.00    -0.267 OA
ATOM     10  N   UNL d   1     -18.578  26.109  22.978  0.00  0.00    -0.323 N 
ATOM     11  H   UNL d   1     -19.131  26.469  22.267  0.00  0.00     0.169 HD
BRANCH  10  12
ATOM     12  C   UNL d   1     -17.231  26.478  23.071  0.00  0.00     0.035 A 
ATOM     13  C   UNL d   1     -16.859  27.543  23.876  0.00  0.00     0.046 A 
ATOM     14  C   UNL d   1     -15.515  27.906  23.965  0.00  0.00     0.034 A 
ATOM     15  C   UNL d   1     -14.555  27.195  23.244  0.00  0.00     0.017 A 
ATOM     16  C   UNL d   1     -14.936  26.136  22.447  0.00  0.00     0.003 A 
ATOM     17  C   UNL d   1     -16.267  25.772  22.361  0.00  0.00     0.029 A 
BRANCH  14  18
ATOM     18  C   UNL d   1     -15.109  29.042  24.822  0.00  0.00     0.253 C 
ATOM     19  O   UNL d   1     -14.767  28.845  25.970  0.00  0.00    -0.267 OA
ATOM     20  N   UNL d   1     -15.120  30.296  24.327  0.00  0.00    -0.357 N 
ATOM     21  C   UNL d   1     -14.618  31.407  25.139  0.00  0.00     0.152 C 
ATOM     22  C   UNL d   1     -15.634  30.547  22.979  0.00  0.00     0.152 C 
ENDBRANCH  14  18
ENDBRANCH  10  12
ENDBRANCH   7   8
BRANCH   1  23
ATOM     23  O   UNL d   1     -21.337  26.930  24.300  0.00  0.00    -0.345 OA
BRANCH  23  24
ATOM     24  C   UNL d   1     -21.602  27.273  25.663  0.00  0.00     0.129 C 
ATOM     25  C   UNL d   1     -21.119  26.142  26.574  0.00  0.00     0.040 C 
BRANCH  24  26
ATOM     26  C   UNL d   1     -20.864  28.564  26.018  0.00  0.00     0.015 C 
ATOM     27  C   UNL d   1     -21.603  29.279  27.151  0.00  0.00     0.007 C 
ATOM     28  C   UNL d   1     -20.864  30.571  27.506  0.00  0.00     0.000 C 
ATOM     29  C   UNL d   1     -19.441  30.237  27.957  0.00  0.00     0.000 C 
ATOM     30  C   UNL d   1     -18.702  29.522  26.824  0.00  0.00     0.000 C 
ATOM     31  C   UNL d   1     -19.440  28.230  26.469  0.00  0.00     0.007 C 
ENDBRANCH  24  26
ENDBRANCH  23  24
ENDBRANCH   1  23
BRANCH   3  32
ATOM     32  N   UNL d   1     -24.406  23.416  23.232  0.00  0.00    -0.178 N 
ATOM     33  C   UNL d   1     -24.908  22.797  22.142  0.00  0.00     0.351 A 
ATOM     34  N   UNL d   1     -26.191  22.500  22.404  0.00  0.00    -0.284 N 
ATOM     35  O   UNL d   1     -24.307  22.552  21.110  0.00  0.00    -0.244 OA
ATOM     36  C   UNL d   1     -26.497  22.976  23.662  0.00  0.00     0.131 A 
ATOM     37  C   UNL d   1     -27.133  21.774  21.546  0.00  0.00     0.135 C 
ATOM     38  N   UNL d   1     -25.441  23.510  24.174  0.00  0.00    -0.149 NA
ATOM     39  C   UNL d   1     -27.869  22.872  24.287  0.00  0.00     0.081 C 
ATOM     40  C   UNL d   1     -28.656  21.793  23.530  0.00  0.00     0.009 C 
ATOM     41  C   UNL d   1     -28.559  22.067  22.026  0.00  0.00     0.021 C 
ENDBRANCH   3  32
TORSDOF 7
ENDMDL
