MODEL 1
REMARK VINA RESULT:     -10.1      0.000      0.000
REMARK  7 active torsions:
REMARK  status: ('A' for Active; 'I' for Inactive)
REMARK    1  A    between atoms: C_8  and  N_9 
REMARK       I    between atoms: N_9  and  C_10 
REMARK    2  A    between atoms: C_10  and  C_12 
REMARK    3  A    between atoms: C_16  and  N_17 
REMARK    4  A    between atoms: C_19  and  C_20 
REMARK    5  A    between atoms: C_28  and  O_29 
REMARK    6  A    between atoms: O_29  and  C_30 
REMARK    7  A    between atoms: C_30  and  C_32 
ROOT
ATOM      1  C   UNL d   1     -24.308  24.419  23.434  0.00  0.00     0.068 A 
ATOM      2  C   UNL d   1     -25.152  24.956  24.413  0.00  0.00     0.064 A 
ATOM      3  C   UNL d   1     -26.414  24.435  24.592  0.00  0.00     0.146 A 
ATOM      4  F   UNL d   1     -27.230  24.957  25.534  0.00  0.00    -0.204 F 
ATOM      5  C   UNL d   1     -26.850  23.367  23.809  0.00  0.00     0.104 A 
ATOM      6  C   UNL d   1     -26.017  22.825  22.840  0.00  0.00     0.073 A 
ATOM      7  C   UNL d   1     -24.748  23.345  22.648  0.00  0.00     0.087 A 
ENDROOT
BRANCH   1   8
ATOM      8  C   UNL d   1     -22.960  24.977  23.235  0.00  0.00     0.259 C 
ATOM      9  N   UNL d   1     -21.897  24.403  23.834  0.00  0.00    -0.320 N 
ATOM     10  H   UNL d   1     -22.008  23.576  24.329  0.00  0.00     0.169 HD
ATOM     11  O   UNL d   1     -22.804  25.956  22.529  0.00  0.00    -0.267 OA
BRANCH   9  12
ATOM     12  C   UNL d   1     -20.635  24.999  23.741  0.00  0.00     0.080 A 
ATOM     13  C   UNL d   1     -20.266  25.990  24.640  0.00  0.00    -0.032 A 
ATOM     14  C   UNL d   1     -21.224  26.424  25.719  0.00  0.00     0.050 C 
ATOM     15  C   UNL d   1     -19.016  26.573  24.549  0.00  0.00     0.009 A 
ATOM     16  C   UNL d   1     -18.137  26.180  23.557  0.00  0.00     0.004 A 
ATOM     17  C   UNL d   1     -18.501  25.193  22.658  0.00  0.00     0.045 A 
ATOM     18  C   UNL d   1     -19.746  24.602  22.746  0.00  0.00     0.143 A 
ATOM     19  F   UNL d   1     -20.102  23.638  21.868  0.00  0.00    -0.204 F 
ENDBRANCH   9  12
ENDBRANCH   1   8
BRANCH   7  20
ATOM     20  O   UNL d   1     -23.933  22.815  21.701  0.00  0.00    -0.336 OA
BRANCH  20  21
ATOM     21  C   UNL d   1     -24.032  23.357  20.382  0.00  0.00     0.232 C 
ATOM     22  C   UNL d   1     -22.646  23.800  19.909  0.00  0.00     0.049 C 
BRANCH  21  23
ATOM     23  C   UNL d   1     -24.578  22.290  19.432  0.00  0.00     0.413 C 
ATOM     24  F   UNL d   1     -23.742  21.168  19.461  0.00  0.00    -0.168 F 
ATOM     25  F   UNL d   1     -25.866  21.922  19.836  0.00  0.00    -0.168 F 
ATOM     26  F   UNL d   1     -24.625  22.803  18.132  0.00  0.00    -0.168 F 
ENDBRANCH  21  23
ENDBRANCH  20  21
ENDBRANCH   7  20
BRANCH   5  27
ATOM     27  N   UNL d   1     -28.130  22.840  24.001  0.00  0.00    -0.178 N 
ATOM     28  C   UNL d   1     -28.504  21.987  24.978  0.00  0.00     0.351 A 
ATOM     29  N   UNL d   1     -29.816  21.728  24.804  0.00  0.00    -0.288 N 
ATOM     30  O   UNL d   1     -27.791  21.535  25.855  0.00  0.00    -0.244 OA
ATOM     31  C   UNL d   1     -30.253  22.429  23.707  0.00  0.00     0.135 A 
ATOM     32  C   UNL d   1     -30.635  20.849  25.643  0.00  0.00     0.162 C 
ATOM     33  N   UNL d   1     -29.262  23.102  23.219  0.00  0.00    -0.149 NA
BRANCH  31  34
ATOM     34  C   UNL d   1     -31.660  22.421  23.165  0.00  0.00     0.057 A 
ATOM     35  C   UNL d   1     -31.844  22.097  21.681  0.00  0.00     0.013 A 
ATOM     36  C   UNL d   1     -32.247  21.072  22.744  0.00  0.00     0.013 A 
ENDBRANCH  31  34
ENDBRANCH   5  27
TORSDOF 7
ENDMDL
