MODEL 1
REMARK VINA RESULT:     -10.9      0.000      0.000
REMARK  6 active torsions:
REMARK  status: ('A' for Active; 'I' for Inactive)
REMARK    1  A    between atoms: C_2  and  O_3 
REMARK    2  A    between atoms: C_2  and  C_33 
REMARK    3  A    between atoms: O_3  and  C_4 
REMARK    4  A    between atoms: C_6  and  N_7 
REMARK    5  A    between atoms: C_20  and  C_21 
REMARK       I    between atoms: C_21  and  N_23 
REMARK    6  A    between atoms: N_23  and  C_24 
ROOT
ATOM      1  C   UNL d   1     -24.689  23.366  22.645  0.00  0.00     0.087 A 
ATOM      2  C   UNL d   1     -25.954  22.831  22.821  0.00  0.00     0.073 A 
ATOM      3  C   UNL d   1     -26.804  23.360  23.782  0.00  0.00     0.104 A 
ATOM      4  C   UNL d   1     -26.390  24.431  24.573  0.00  0.00     0.146 A 
ATOM      5  F   UNL d   1     -27.224  24.941  25.506  0.00  0.00    -0.204 F 
ATOM      6  C   UNL d   1     -25.133  24.967  24.411  0.00  0.00     0.064 A 
ATOM      7  C   UNL d   1     -24.271  24.444  23.440  0.00  0.00     0.068 A 
ENDROOT
BRANCH   7   8
ATOM      8  C   UNL d   1     -22.927  25.018  23.258  0.00  0.00     0.259 C 
ATOM      9  O   UNL d   1     -22.777  26.006  22.564  0.00  0.00    -0.267 OA
ATOM     10  N   UNL d   1     -21.863  24.449  23.859  0.00  0.00    -0.319 N 
ATOM     11  H   UNL d   1     -21.969  23.616  24.344  0.00  0.00     0.169 HD
BRANCH  10  12
ATOM     12  C   UNL d   1     -20.606  25.060  23.784  0.00  0.00     0.099 A 
ATOM     13  C   UNL d   1     -19.683  24.639  22.836  0.00  0.00     0.183 A 
ATOM     14  C   UNL d   1     -18.439  25.246  22.764  0.00  0.00     0.157 A 
ATOM     15  F   UNL d   1     -19.995  23.636  21.986  0.00  0.00    -0.200 F 
ATOM     16  C   UNL d   1     -18.120  26.274  23.635  0.00  0.00     0.047 A 
ATOM     17  F   UNL d   1     -17.540  24.838  21.843  0.00  0.00    -0.203 F 
ATOM     18  C   UNL d   1     -19.041  26.698  24.576  0.00  0.00     0.029 A 
ATOM     19  C   UNL d   1     -20.280  26.092  24.657  0.00  0.00     0.064 A 
ATOM     20 CL   UNL d   1     -21.431  26.623  25.842  0.00  0.00    -0.082 Cl
ENDBRANCH  10  12
ENDBRANCH   7   8
BRANCH   1  21
ATOM     21  O   UNL d   1     -23.857  22.851  21.705  0.00  0.00    -0.336 OA
BRANCH  21  22
ATOM     22  C   UNL d   1     -23.961  23.385  20.384  0.00  0.00     0.232 C 
ATOM     23  C   UNL d   1     -22.575  23.812  19.895  0.00  0.00     0.049 C 
BRANCH  22  24
ATOM     24  C   UNL d   1     -24.525  22.316  19.446  0.00  0.00     0.413 C 
ATOM     25  F   UNL d   1     -25.811  21.958  19.867  0.00  0.00    -0.168 F 
ATOM     26  F   UNL d   1     -24.587  22.824  18.143  0.00  0.00    -0.168 F 
ATOM     27  F   UNL d   1     -23.696  21.190  19.469  0.00  0.00    -0.168 F 
ENDBRANCH  22  24
ENDBRANCH  21  22
ENDBRANCH   1  21
BRANCH   3  28
ATOM     28  N   UNL d   1     -28.079  22.818  23.957  0.00  0.00    -0.178 N 
ATOM     29  C   UNL d   1     -28.486  22.046  24.990  0.00  0.00     0.351 A 
ATOM     30  N   UNL d   1     -29.781  21.765  24.790  0.00  0.00    -0.280 N 
ATOM     31  O   UNL d   1     -27.804  21.678  25.929  0.00  0.00    -0.244 OA
ATOM     32  C   UNL d   1     -30.172  22.334  23.591  0.00  0.00     0.155 A 
ATOM     33  C   UNL d   1     -30.698  21.006  25.649  0.00  0.00     0.161 C 
ATOM     34  N   UNL d   1     -29.173  22.968  23.089  0.00  0.00    -0.147 NA
ATOM     35  C   UNL d   1     -31.567  22.178  23.031  0.00  0.00     0.248 C 
ATOM     36  O   UNL d   1     -32.415  21.726  24.097  0.00  0.00    -0.382 OA
ATOM     37  C   UNL d   1     -31.905  20.586  24.797  0.00  0.00     0.188 C 
ENDBRANCH   3  28
TORSDOF 6
ENDMDL
