MODEL 1
REMARK VINA RESULT:     -11.1      0.000      0.000
REMARK  8 active torsions:
REMARK  status: ('A' for Active; 'I' for Inactive)
REMARK    1  A    between atoms: C_2  and  O_3 
REMARK    2  A    between atoms: C_2  and  C_35 
REMARK    3  A    between atoms: O_3  and  C_4 
REMARK    4  A    between atoms: C_6  and  N_7 
REMARK    5  A    between atoms: C_14  and  C_15 
REMARK    6  A    between atoms: C_15  and  O_17 
REMARK    7  A    between atoms: C_23  and  C_24 
REMARK       I    between atoms: C_24  and  N_26 
REMARK    8  A    between atoms: N_26  and  C_27 
ROOT
ATOM      1  C   UNL d   1     -24.729  23.333  22.763  0.00  0.00     0.087 A 
ATOM      2  C   UNL d   1     -25.975  22.762  22.955  0.00  0.00     0.073 A 
ATOM      3  C   UNL d   1     -26.828  23.266  23.929  0.00  0.00     0.104 A 
ATOM      4  C   UNL d   1     -26.432  24.348  24.716  0.00  0.00     0.146 A 
ATOM      5  F   UNL d   1     -27.267  24.833  25.662  0.00  0.00    -0.204 F 
ATOM      6  C   UNL d   1     -25.193  24.919  24.536  0.00  0.00     0.064 A 
ATOM      7  C   UNL d   1     -24.330  24.420  23.553  0.00  0.00     0.068 A 
ENDROOT
BRANCH   3   8
ATOM      8  N   UNL d   1     -28.084  22.689  24.120  0.00  0.00    -0.178 N 
ATOM      9  C   UNL d   1     -29.127  22.739  23.263  0.00  0.00     0.351 A 
ATOM     10  N   UNL d   1     -30.149  22.082  23.835  0.00  0.00    -0.283 N 
ATOM     11  O   UNL d   1     -29.137  23.277  22.170  0.00  0.00    -0.244 OA
ATOM     12  C   UNL d   1     -29.723  21.594  25.053  0.00  0.00     0.131 A 
ATOM     13  C   UNL d   1     -31.507  21.910  23.308  0.00  0.00     0.150 C 
ATOM     14  N   UNL d   1     -28.500  21.954  25.242  0.00  0.00    -0.149 NA
ATOM     15  C   UNL d   1     -30.584  20.753  25.967  0.00  0.00     0.081 C 
ATOM     16  C   UNL d   1     -32.049  20.950  25.553  0.00  0.00     0.024 C 
ATOM     17  C   UNL d   1     -32.173  20.740  24.041  0.00  0.00     0.102 C 
BRANCH  17  18
ATOM     18  C   UNL d   1     -33.630  20.673  23.661  0.00  0.00     0.145 C 
ATOM     19  O   UNL d   1     -34.455  20.352  24.483  0.00  0.00    -0.650 OA
BRANCH  18  20
ATOM     20  O   UNL d   1     -34.012  20.970  22.409  0.00  0.00    -0.776 OA
ATOM     21  H   UNL d   1     -34.696  21.646  22.307  0.00  0.00     0.167 HD
ENDBRANCH  18  20
ENDBRANCH  17  18
ENDBRANCH   3   8
BRANCH   1  22
ATOM     22  O   UNL d   1     -23.896  22.842  21.811  0.00  0.00    -0.336 OA
BRANCH  22  23
ATOM     23  C   UNL d   1     -24.067  23.337  20.481  0.00  0.00     0.232 C 
ATOM     24  C   UNL d   1     -22.718  23.812  19.936  0.00  0.00     0.049 C 
BRANCH  23  25
ATOM     25  C   UNL d   1     -24.615  22.221  19.588  0.00  0.00     0.413 C 
ATOM     26  F   UNL d   1     -23.876  21.053  19.796  0.00  0.00    -0.168 F 
ATOM     27  F   UNL d   1     -25.957  21.987  19.907  0.00  0.00    -0.168 F 
ATOM     28  F   UNL d   1     -24.514  22.606  18.247  0.00  0.00    -0.168 F 
ENDBRANCH  23  25
ENDBRANCH  22  23
ENDBRANCH   1  22
BRANCH   7  29
ATOM     29  C   UNL d   1     -23.006  25.033  23.353  0.00  0.00     0.259 C 
ATOM     30  O   UNL d   1     -22.885  25.990  22.612  0.00  0.00    -0.267 OA
ATOM     31  N   UNL d   1     -21.929  24.534  23.991  0.00  0.00    -0.319 N 
ATOM     32  H   UNL d   1     -22.037  23.828  24.646  0.00  0.00     0.169 HD
BRANCH  31  33
ATOM     33  C   UNL d   1     -20.653  25.041  23.713  0.00  0.00     0.096 A 
ATOM     34  C   UNL d   1     -20.143  26.091  24.464  0.00  0.00     0.064 A 
ATOM     35  C   UNL d   1     -18.880  26.585  24.190  0.00  0.00     0.026 A 
ATOM     36 CL   UNL d   1     -21.085  26.780  25.748  0.00  0.00    -0.082 Cl
ATOM     37  C   UNL d   1     -18.131  26.042  23.164  0.00  0.00     0.005 A 
ATOM     38  C   UNL d   1     -18.637  25.000  22.409  0.00  0.00     0.045 A 
ATOM     39  C   UNL d   1     -19.897  24.497  22.680  0.00  0.00     0.144 A 
ATOM     40  F   UNL d   1     -20.391  23.479  21.943  0.00  0.00    -0.204 F 
ENDBRANCH  31  33
ENDBRANCH   7  29
TORSDOF 8
ENDMDL
