MODEL 1
REMARK VINA RESULT:      -8.2      0.000      0.000
REMARK  8 active torsions:
REMARK  status: ('A' for Active; 'I' for Inactive)
REMARK    1  A    between atoms: C_2  and  C_4 
REMARK    2  A    between atoms: C_4  and  C_5 
REMARK    3  A    between atoms: C_5  and  O_7 
REMARK    4  A    between atoms: O_7  and  C_8 
REMARK    5  A    between atoms: C_10  and  N_11 
REMARK    6  A    between atoms: C_13  and  C_14 
REMARK    7  A    between atoms: C_24  and  C_25 
REMARK       I    between atoms: C_25  and  N_27 
REMARK    8  A    between atoms: N_27  and  C_28 
ROOT
ATOM      1  C   UNL d   1     -23.908  24.211  23.100  0.00  0.00     0.087 A 
ATOM      2  C   UNL d   1     -25.095  23.500  23.139  0.00  0.00     0.073 A 
ATOM      3  C   UNL d   1     -26.139  23.934  23.944  0.00  0.00     0.104 A 
ATOM      4  C   UNL d   1     -25.999  25.086  24.716  0.00  0.00     0.146 A 
ATOM      5  F   UNL d   1     -27.019  25.504  25.497  0.00  0.00    -0.204 F 
ATOM      6  C   UNL d   1     -24.821  25.798  24.689  0.00  0.00     0.064 A 
ATOM      7  C   UNL d   1     -23.764  25.370  23.876  0.00  0.00     0.068 A 
ENDROOT
BRANCH   7   8
ATOM      8  C   UNL d   1     -22.504  26.132  23.839  0.00  0.00     0.254 C 
ATOM      9  O   UNL d   1     -22.525  27.334  23.657  0.00  0.00    -0.268 OA
ATOM     10  N   UNL d   1     -21.327  25.496  24.007  0.00  0.00    -0.352 N 
ATOM     11  H   UNL d   1     -21.310  24.537  24.152  0.00  0.00     0.163 HD
BRANCH  10  12
ATOM     12  C   UNL d   1     -20.074  26.253  23.970  0.00  0.00     0.088 C 
ATOM     13  C   UNL d   1     -19.543  26.435  25.395  0.00  0.00     0.055 C 
ATOM     14  C   UNL d   1     -18.204  27.174  25.346  0.00  0.00     0.274 C 
ATOM     15  N   UNL d   1     -17.247  26.402  24.542  0.00  0.00     0.084 N 
ATOM     16  C   UNL d   1     -17.713  26.255  23.158  0.00  0.00     0.274 C 
ATOM     17  C   UNL d   1     -15.912  27.010  24.586  0.00  0.00     0.309 C 
ATOM     18  C   UNL d   1     -19.038  25.489  23.142  0.00  0.00     0.055 C 
ENDBRANCH  10  12
ENDBRANCH   7   8
BRANCH   1  19
ATOM     19  O   UNL d   1     -22.887  23.788  22.313  0.00  0.00    -0.345 OA
BRANCH  19  20
ATOM     20  C   UNL d   1     -22.958  24.117  20.924  0.00  0.00     0.125 C 
ATOM     21  C   UNL d   1     -21.648  24.779  20.491  0.00  0.00     0.040 C 
BRANCH  20  22
ATOM     22  C   UNL d   1     -23.180  22.843  20.108  0.00  0.00     0.035 C 
BRANCH  22  23
ATOM     23  C   UNL d   1     -24.642  22.769  19.663  0.00  0.00    -0.020 C 
ATOM     24  C   UNL d   1     -24.704  22.382  18.183  0.00  0.00     0.009 C 
ATOM     25  C   UNL d   1     -25.378  21.719  20.497  0.00  0.00     0.009 C 
ENDBRANCH  22  23
ENDBRANCH  20  22
ENDBRANCH  19  20
ENDBRANCH   1  19
BRANCH   3  26
ATOM     26  N   UNL d   1     -27.335  23.213  23.981  0.00  0.00    -0.178 N 
ATOM     27  C   UNL d   1     -27.812  22.509  25.028  0.00  0.00     0.351 A 
ATOM     28  N   UNL d   1     -28.990  21.971  24.649  0.00  0.00    -0.288 N 
ATOM     29  O   UNL d   1     -27.279  22.382  26.115  0.00  0.00    -0.244 OA
ATOM     30  C   UNL d   1     -29.237  22.342  23.350  0.00  0.00     0.134 A 
ATOM     31  C   UNL d   1     -29.855  21.129  25.481  0.00  0.00     0.162 C 
ATOM     32  N   UNL d   1     -28.260  23.084  22.935  0.00  0.00    -0.149 NA
BRANCH  30  33
ATOM     33  C   UNL d   1     -30.446  21.951  22.541  0.00  0.00     0.049 C 
ATOM     34  C   UNL d   1     -31.702  22.546  23.180  0.00  0.00     0.018 C 
ATOM     35  C   UNL d   1     -30.299  22.483  21.114  0.00  0.00     0.018 C 
ENDBRANCH  30  33
ENDBRANCH   3  26
TORSDOF 8
ENDMDL
