MODEL 1
REMARK VINA RESULT:      -9.4      0.000      0.000
REMARK  8 active torsions:
REMARK  status: ('A' for Active; 'I' for Inactive)
REMARK    1  A    between atoms: C_2  and  C_3 
REMARK    2  A    between atoms: N_5  and  C_6 
REMARK    3  A    between atoms: C_8  and  O_9 
REMARK    4  A    between atoms: O_9  and  C_10 
REMARK    5  A    between atoms: C_10  and  C_12 
REMARK    6  A    between atoms: C_12  and  N_13 
REMARK    7  A    between atoms: C_16  and  C_17 
REMARK       I    between atoms: C_17  and  N_19 
REMARK    8  A    between atoms: N_19  and  C_20 
ROOT
ATOM      1  C   UNL d   1     -28.727  22.140  22.317  0.00  0.00     0.104 A 
ATOM      2  C   UNL d   1     -28.087  22.968  23.228  0.00  0.00     0.073 A 
ATOM      3  C   UNL d   1     -26.711  23.108  23.190  0.00  0.00     0.087 A 
ATOM      4  C   UNL d   1     -25.965  22.411  22.228  0.00  0.00     0.068 A 
ATOM      5  C   UNL d   1     -26.619  21.582  21.308  0.00  0.00     0.064 A 
ATOM      6  C   UNL d   1     -27.989  21.445  21.360  0.00  0.00     0.146 A 
ATOM      7  F   UNL d   1     -28.618  20.641  20.476  0.00  0.00    -0.204 F 
ENDROOT
BRANCH   4   8
ATOM      8  C   UNL d   1     -24.501  22.555  22.180  0.00  0.00     0.259 C 
ATOM      9  O   UNL d   1     -23.798  21.575  22.018  0.00  0.00    -0.267 OA
ATOM     10  N   UNL d   1     -23.938  23.772  22.317  0.00  0.00    -0.320 N 
ATOM     11  H   UNL d   1     -24.490  24.540  22.527  0.00  0.00     0.169 HD
BRANCH  10  12
ATOM     12  C   UNL d   1     -22.556  23.926  22.155  0.00  0.00     0.080 A 
ATOM     13  C   UNL d   1     -21.703  23.751  23.238  0.00  0.00     0.143 A 
ATOM     14  C   UNL d   1     -20.338  23.904  23.073  0.00  0.00     0.045 A 
ATOM     15  F   UNL d   1     -22.206  23.431  24.451  0.00  0.00    -0.204 F 
ATOM     16  C   UNL d   1     -19.823  24.232  21.832  0.00  0.00     0.004 A 
ATOM     17  C   UNL d   1     -20.671  24.412  20.755  0.00  0.00     0.009 A 
ATOM     18  C   UNL d   1     -22.034  24.255  20.911  0.00  0.00    -0.032 A 
ATOM     19  C   UNL d   1     -22.955  24.446  19.733  0.00  0.00     0.050 C 
ENDBRANCH  10  12
ENDBRANCH   4   8
BRANCH   3  20
ATOM     20  O   UNL d   1     -26.084  23.917  24.081  0.00  0.00    -0.343 OA
BRANCH  20  21
ATOM     21  C   UNL d   1     -26.556  23.886  25.429  0.00  0.00     0.153 C 
ATOM     22  C   UNL d   1     -26.749  25.318  25.934  0.00  0.00     0.042 C 
BRANCH  21  23
ATOM     23  C   UNL d   1     -27.891  23.141  25.484  0.00  0.00     0.303 C 
BRANCH  23  24
ATOM     24  N   UNL d   1     -27.991  22.409  26.753  0.00  0.00     0.082 N 
ATOM     25  C   UNL d   1     -29.194  21.566  26.782  0.00  0.00     0.309 C 
ATOM     26  C   UNL d   1     -26.783  21.611  26.998  0.00  0.00     0.309 C 
ENDBRANCH  23  24
ENDBRANCH  21  23
ENDBRANCH  20  21
ENDBRANCH   3  20
BRANCH   1  27
ATOM     27  N   UNL d   1     -30.116  22.001  22.359  0.00  0.00    -0.178 N 
ATOM     28  N   UNL d   1     -30.882  21.643  23.477  0.00  0.00    -0.149 NA
ATOM     29  C   UNL d   1     -32.127  21.619  23.121  0.00  0.00     0.130 A 
ATOM     30  N   UNL d   1     -32.215  21.951  21.792  0.00  0.00    -0.289 N 
ATOM     31  C   UNL d   1     -30.971  22.190  21.332  0.00  0.00     0.351 A 
ATOM     32  C   UNL d   1     -33.450  22.036  21.009  0.00  0.00     0.162 C 
ATOM     33  O   UNL d   1     -30.671  22.515  20.196  0.00  0.00    -0.244 OA
BRANCH  29  34
ATOM     34  C   UNL d   1     -33.289  21.280  24.019  0.00  0.00     0.076 C 
ATOM     35  C   UNL d   1     -32.853  20.229  25.043  0.00  0.00     0.013 C 
ENDBRANCH  29  34
ENDBRANCH   1  27
TORSDOF 8
ENDMDL
