MODEL 1
REMARK VINA RESULT:      -9.5      0.000      0.000
REMARK  5 active torsions:
REMARK  status: ('A' for Active; 'I' for Inactive)
REMARK    1  A    between atoms: C_2  and  C_3 
REMARK    2  A    between atoms: C_3  and  C_4 
REMARK    3  A    between atoms: N_12  and  C_13 
REMARK    4  A    between atoms: C_16  and  C_17 
REMARK       I    between atoms: C_17  and  N_19 
REMARK    5  A    between atoms: N_19  and  C_20 
ROOT
ATOM      1  C   UNL d   1     -31.762  20.548  25.128  0.00  0.00     0.112 A 
ATOM      2  N   UNL d   1     -32.930  20.224  24.656  0.00  0.00    -0.233 NA
ATOM      3  C   UNL d   1     -33.083  20.750  23.412  0.00  0.00     0.086 A 
ATOM      4  C   UNL d   1     -34.115  20.711  22.471  0.00  0.00     0.034 A 
ATOM      5  C   UNL d   1     -33.971  21.359  21.276  0.00  0.00     0.002 A 
ATOM      6  C   UNL d   1     -32.804  22.050  20.981  0.00  0.00     0.002 A 
ATOM      7  C   UNL d   1     -31.771  22.098  21.894  0.00  0.00     0.032 A 
ATOM      8  C   UNL d   1     -31.902  21.451  23.114  0.00  0.00     0.070 A 
ATOM      9  N   UNL d   1     -31.083  21.305  24.219  0.00  0.00    -0.291 N 
ENDROOT
BRANCH   9  10
ATOM     10  C   UNL d   1     -29.804  21.833  24.375  0.00  0.00     0.083 A 
ATOM     11  S   UNL d   1     -28.969  22.716  23.178  0.00  0.00    -0.066 SA
ATOM     12  C   UNL d   1     -27.577  22.922  24.232  0.00  0.00     0.074 A 
ATOM     13  C   UNL d   1     -27.825  22.310  25.430  0.00  0.00     0.027 A 
ATOM     14  C   UNL d   1     -29.061  21.719  25.493  0.00  0.00     0.039 A 
BRANCH  12  15
ATOM     15  C   UNL d   1     -26.348  23.635  23.884  0.00  0.00     0.258 C 
ATOM     16  O   UNL d   1     -26.199  24.794  24.226  0.00  0.00    -0.267 OA
ATOM     17  N   UNL d   1     -25.382  23.009  23.182  0.00  0.00    -0.352 N 
ATOM     18  H   UNL d   1     -25.501  22.087  22.910  0.00  0.00     0.163 HD
BRANCH  17  19
ATOM     19  C   UNL d   1     -24.151  23.724  22.834  0.00  0.00     0.084 A 
ATOM     20  C   UNL d   1     -22.828  22.975  23.004  0.00  0.00     0.027 A 
ATOM     21  C   UNL d   1     -23.381  23.243  21.602  0.00  0.00     0.027 A 
ENDBRANCH  17  19
ENDBRANCH  12  15
ENDBRANCH   9  10
BRANCH   1  22
ATOM     22  C   UNL d   1     -31.236  20.144  26.481  0.00  0.00     0.079 C 
BRANCH  22  23
ATOM     23  C   UNL d   1     -30.931  18.646  26.485  0.00  0.00     0.003 C 
ATOM     24  C   UNL d   1     -32.208  17.866  26.805  0.00  0.00     0.005 C 
ENDBRANCH  22  23
ENDBRANCH   1  22
TORSDOF 5
ENDMDL
