MODEL 1
REMARK VINA RESULT:      -9.8      0.000      0.000
REMARK  5 active torsions:
REMARK  status: ('A' for Active; 'I' for Inactive)
REMARK    1  A    between atoms: O_2  and  C_3 
REMARK    2  A    between atoms: C_7  and  C_8 
REMARK    3  A    between atoms: C_8  and  O_10 
REMARK    4  A    between atoms: C_11  and  O_12 
REMARK    5  A    between atoms: C_13  and  C_14 
ROOT
ATOM      1  C   UNL d   1     -32.743  22.030  21.741  0.00  0.00     0.070 A 
ATOM      2  C   UNL d   1     -33.159  21.566  22.992  0.00  0.00     0.038 A 
ATOM      3  C   UNL d   1     -32.260  21.372  23.997  0.00  0.00     0.018 A 
ATOM      4  C   UNL d   1     -30.903  21.638  23.780  0.00  0.00     0.013 A 
ATOM      5  C   UNL d   1     -29.910  21.440  24.837  0.00  0.00     0.085 A 
ATOM      6  C   UNL d   1     -28.581  21.731  24.528  0.00  0.00     0.113 A 
ATOM      7  C   UNL d   1     -28.260  22.193  23.235  0.00  0.00     0.102 A 
ATOM      8  N   UNL d   1     -29.174  22.361  22.305  0.00  0.00    -0.244 NA
ATOM      9  C   UNL d   1     -30.468  22.107  22.515  0.00  0.00     0.071 A 
ATOM     10  C   UNL d   1     -31.415  22.299  21.495  0.00  0.00     0.069 A 
ENDROOT
BRANCH   7  11
ATOM     11  C   UNL d   1     -26.846  22.500  22.914  0.00  0.00    -0.004 A 
ATOM     12  C   UNL d   1     -26.176  23.514  23.598  0.00  0.00     0.015 A 
ATOM     13  C   UNL d   1     -24.861  23.794  23.294  0.00  0.00     0.024 A 
ATOM     14  C   UNL d   1     -24.203  23.070  22.313  0.00  0.00     0.034 A 
ATOM     15  C   UNL d   1     -24.863  22.063  21.632  0.00  0.00     0.024 A 
ATOM     16 CL   UNL d   1     -22.547  23.429  21.938  0.00  0.00    -0.084 Cl
ATOM     17  C   UNL d   1     -26.179  21.771  21.930  0.00  0.00     0.015 A 
ENDBRANCH   7  11
BRANCH   6  18
ATOM     18  O   UNL d   1     -27.610  21.570  25.459  0.00  0.00    -0.357 OA
ATOM     19  H   UNL d   1     -27.940  21.317  26.332  0.00  0.00     0.217 HD
ENDBRANCH   6  18
BRANCH   5  20
ATOM     20  C   UNL d   1     -30.299  20.955  26.172  0.00  0.00     0.180 C 
ATOM     21  O   UNL d   1     -30.275  21.710  27.124  0.00  0.00    -0.646 OA
BRANCH  20  22
ATOM     22  O   UNL d   1     -30.683  19.673  26.339  0.00  0.00    -0.773 OA
ATOM     23  H   UNL d   1     -30.758  19.352  27.248  0.00  0.00     0.167 HD
ENDBRANCH  20  22
ENDBRANCH   5  20
BRANCH   1  24
ATOM     24  O   UNL d   1     -33.658  22.215  20.754  0.00  0.00    -0.356 OA
ATOM     25  C   UNL d   1     -34.940  22.713  21.144  0.00  0.00     0.210 C 
ENDBRANCH   1  24
TORSDOF 5
ENDMDL
