MODEL 1
REMARK VINA RESULT:      -9.3      0.000      0.000
REMARK  7 active torsions:
REMARK  status: ('A' for Active; 'I' for Inactive)
REMARK    1  A    between atoms: C_2  and  N_3 
REMARK    2  A    between atoms: C_4  and  C_5 
REMARK    3  A    between atoms: C_5  and  O_6 
REMARK    4  A    between atoms: N_8  and  C_9 
REMARK    5  A    between atoms: C_12  and  C_13 
REMARK    6  A    between atoms: C_13  and  C_15 
REMARK    7  A    between atoms: N_20  and  C_21 
ROOT
ATOM      1  C   UNL d   1     -29.017  22.124  22.011  0.00  0.00     0.103 A 
ATOM      2  C   UNL d   1     -28.330  22.912  22.918  0.00  0.00     0.049 A 
ATOM      3  C   UNL d   1     -26.949  23.053  22.799  0.00  0.00     0.009 A 
ATOM      4  C   UNL d   1     -26.175  23.869  23.735  0.00  0.00     0.079 A 
ATOM      5  N   UNL d   1     -24.888  23.981  23.588  0.00  0.00    -0.167 NA
ATOM      6  N   UNL d   1     -24.189  23.348  22.560  0.00  0.00    -0.196 N 
ATOM      7  C   UNL d   1     -24.813  22.575  21.648  0.00  0.00     0.279 A 
ATOM      8  O   UNL d   1     -24.182  22.032  20.759  0.00  0.00    -0.265 OA
ATOM      9  C   UNL d   1     -26.265  22.399  21.746  0.00  0.00     0.049 A 
ATOM     10  C   UNL d   1     -26.975  21.614  20.837  0.00  0.00     0.062 A 
ATOM     11  C   UNL d   1     -28.339  21.480  20.973  0.00  0.00     0.146 A 
ATOM     12  F   UNL d   1     -29.028  20.719  20.093  0.00  0.00    -0.204 F 
ENDROOT
BRANCH   1  13
ATOM     13  N   UNL d   1     -30.402  21.976  22.131  0.00  0.00    -0.178 N 
ATOM     14  N   UNL d   1     -31.341  22.071  21.095  0.00  0.00    -0.147 NA
ATOM     15  C   UNL d   1     -32.517  21.870  21.597  0.00  0.00     0.154 A 
ATOM     16  N   UNL d   1     -32.391  21.652  22.947  0.00  0.00    -0.283 N 
ATOM     17  C   UNL d   1     -31.083  21.716  23.266  0.00  0.00     0.351 A 
ATOM     18  O   UNL d   1     -30.604  21.566  24.376  0.00  0.00    -0.244 OA
BRANCH  15  19
ATOM     19  C   UNL d   1     -33.812  21.878  20.826  0.00  0.00     0.244 C 
BRANCH  19  20
ATOM     20  O   UNL d   1     -34.619  22.974  21.262  0.00  0.00    -0.393 OA
ATOM     21  H   UNL d   1     -34.688  23.691  20.618  0.00  0.00     0.209 HD
ENDBRANCH  19  20
ENDBRANCH  15  19
BRANCH  16  22
ATOM     22  C   UNL d   1     -33.490  21.389  23.879  0.00  0.00     0.131 C 
ATOM     23  C   UNL d   1     -33.405  19.943  24.372  0.00  0.00     0.027 C 
ENDBRANCH  16  22
ENDBRANCH   1  13
BRANCH   4  24
ATOM     24  C   UNL d   1     -26.869  24.580  24.868  0.00  0.00     0.144 C 
ATOM     25  C   UNL d   1     -25.998  25.741  25.351  0.00  0.00     0.026 C 
BRANCH  24  26
ATOM     26  C   UNL d   1     -27.097  23.600  26.021  0.00  0.00     0.396 C 
ATOM     27  F   UNL d   1     -28.261  22.861  25.782  0.00  0.00    -0.170 F 
ATOM     28  F   UNL d   1     -26.004  22.730  26.116  0.00  0.00    -0.170 F 
ATOM     29  F   UNL d   1     -27.233  24.311  27.218  0.00  0.00    -0.170 F 
ENDBRANCH  24  26
ENDBRANCH   4  24
BRANCH   6  30
ATOM     30  C   UNL d   1     -22.802  23.520  22.473  0.00  0.00     0.068 A 
ATOM     31  C   UNL d   1     -22.260  24.291  21.454  0.00  0.00    -0.033 A 
ATOM     32  C   UNL d   1     -20.891  24.458  21.371  0.00  0.00     0.009 A 
ATOM     33  C   UNL d   1     -23.162  24.943  20.439  0.00  0.00     0.050 C 
ATOM     34  C   UNL d   1     -20.062  23.859  22.302  0.00  0.00     0.001 A 
ATOM     35  C   UNL d   1     -20.600  23.091  23.319  0.00  0.00     0.002 A 
ATOM     36  C   UNL d   1     -21.967  22.923  23.410  0.00  0.00     0.032 A 
ENDBRANCH   6  30
TORSDOF 7
ENDMDL
