MODEL 1
REMARK VINA RESULT:     -11.5      0.000      0.000
REMARK  6 active torsions:
REMARK  status: ('A' for Active; 'I' for Inactive)
REMARK    1  A    between atoms: C_6  and  N_7 
REMARK       I    between atoms: N_7  and  C_8 
REMARK    2  A    between atoms: C_8  and  C_10 
REMARK    3  A    between atoms: C_14  and  N_15 
REMARK    4  A    between atoms: C_26  and  O_27 
REMARK    5  A    between atoms: O_27  and  C_28 
REMARK    6  A    between atoms: C_28  and  C_30 
ROOT
ATOM      1  C   UNL d   1     -24.293  24.428  23.421  0.00  0.00     0.068 A 
ATOM      2  C   UNL d   1     -25.155  24.952  24.391  0.00  0.00     0.064 A 
ATOM      3  C   UNL d   1     -26.407  24.407  24.565  0.00  0.00     0.146 A 
ATOM      4  F   UNL d   1     -27.240  24.918  25.498  0.00  0.00    -0.204 F 
ATOM      5  C   UNL d   1     -26.817  23.327  23.783  0.00  0.00     0.104 A 
ATOM      6  C   UNL d   1     -25.966  22.797  22.823  0.00  0.00     0.073 A 
ATOM      7  C   UNL d   1     -24.708  23.341  22.636  0.00  0.00     0.087 A 
ENDROOT
BRANCH   1   8
ATOM      8  C   UNL d   1     -22.955  25.011  23.229  0.00  0.00     0.259 C 
ATOM      9  N   UNL d   1     -21.871  24.392  23.736  0.00  0.00    -0.322 N 
ATOM     10  H   UNL d   1     -21.966  23.532  24.176  0.00  0.00     0.169 HD
ATOM     11  O   UNL d   1     -22.829  26.053  22.613  0.00  0.00    -0.267 OA
BRANCH   9  12
ATOM     12  C   UNL d   1     -20.614  24.987  23.630  0.00  0.00     0.047 A 
ATOM     13  C   UNL d   1     -20.182  25.917  24.598  0.00  0.00     0.019 A 
ATOM     14  C   UNL d   1     -20.997  26.270  25.688  0.00  0.00     0.018 A 
ATOM     15  C   UNL d   1     -18.903  26.511  24.474  0.00  0.00     0.069 A 
ATOM     16  C   UNL d   1     -20.513  27.178  26.587  0.00  0.00     0.027 A 
ATOM     17  C   UNL d   1     -19.246  27.726  26.408  0.00  0.00     0.031 A 
ATOM     18  C   UNL d   1     -18.730  28.726  27.411  0.00  0.00     0.070 C 
ATOM     19  N   UNL d   1     -18.489  27.394  25.390  0.00  0.00    -0.253 NA
ATOM     20  C   UNL d   1     -18.086  26.161  23.385  0.00  0.00     0.032 A 
ATOM     21  C   UNL d   1     -18.527  25.260  22.465  0.00  0.00     0.005 A 
ATOM     22  C   UNL d   1     -19.782  24.671  22.577  0.00  0.00     0.030 A 
ENDBRANCH   9  12
ENDBRANCH   1   8
BRANCH   7  23
ATOM     23  O   UNL d   1     -23.875  22.825  21.697  0.00  0.00    -0.336 OA
BRANCH  23  24
ATOM     24  C   UNL d   1     -23.944  23.394  20.387  0.00  0.00     0.232 C 
ATOM     25  C   UNL d   1     -22.541  23.798  19.933  0.00  0.00     0.049 C 
BRANCH  24  26
ATOM     26  C   UNL d   1     -24.519  22.363  19.413  0.00  0.00     0.413 C 
ATOM     27  F   UNL d   1     -24.625  22.932  18.140  0.00  0.00    -0.168 F 
ATOM     28  F   UNL d   1     -23.671  21.251  19.357  0.00  0.00    -0.168 F 
ATOM     29  F   UNL d   1     -25.786  21.962  19.852  0.00  0.00    -0.168 F 
ENDBRANCH  24  26
ENDBRANCH  23  24
ENDBRANCH   7  23
BRANCH   5  30
ATOM     30  N   UNL d   1     -28.087  22.776  23.968  0.00  0.00    -0.178 N 
ATOM     31  C   UNL d   1     -28.482  22.007  25.005  0.00  0.00     0.351 A 
ATOM     32  N   UNL d   1     -29.779  21.711  24.813  0.00  0.00    -0.284 N 
ATOM     33  O   UNL d   1     -27.792  21.649  25.942  0.00  0.00    -0.244 OA
ATOM     34  C   UNL d   1     -30.181  22.275  23.620  0.00  0.00     0.131 A 
ATOM     35  C   UNL d   1     -30.662  20.947  25.702  0.00  0.00     0.135 C 
ATOM     36  N   UNL d   1     -29.190  22.926  23.114  0.00  0.00    -0.149 NA
ATOM     37  C   UNL d   1     -31.568  22.115  23.042  0.00  0.00     0.081 C 
ATOM     38  C   UNL d   1     -32.505  21.666  24.171  0.00  0.00     0.009 C 
ATOM     39  C   UNL d   1     -31.876  20.471  24.897  0.00  0.00     0.021 C 
ENDBRANCH   5  30
TORSDOF 6
ENDMDL
