MODEL 1
REMARK VINA RESULT:      -8.9      0.000      0.000
REMARK  6 active torsions:
REMARK  status: ('A' for Active; 'I' for Inactive)
REMARK    1  A    between atoms: C_2  and  O_3 
REMARK    2  A    between atoms: C_2  and  C_4 
REMARK    3  A    between atoms: C_9  and  N_10 
REMARK    4  A    between atoms: N_10  and  C_11 
REMARK    5  A    between atoms: C_14  and  O_15 
REMARK    6  A    between atoms: O_15  and  C_16 
ROOT
ATOM      1  N   UNL d   1     -30.997  22.719  23.491  0.00  0.00    -0.340 N 
ATOM      2  H   UNL d   1     -31.125  23.505  24.047  0.00  0.00     0.167 HD
ENDROOT
BRANCH   1   3
ATOM      3  C   UNL d   1     -32.087  21.962  23.105  0.00  0.00     0.144 A 
ATOM      4  C   UNL d   1     -32.611  20.992  23.978  0.00  0.00     0.083 A 
ATOM      5  C   UNL d   1     -33.715  20.238  23.565  0.00  0.00     0.024 A 
ATOM      6  C   UNL d   1     -34.244  20.480  22.309  0.00  0.00     0.020 A 
ATOM      7  C   UNL d   1     -33.670  21.449  21.505  0.00  0.00     0.119 A 
ATOM      8  N   UNL d   1     -32.633  22.153  21.913  0.00  0.00    -0.242 NA
BRANCH   4   9
ATOM      9  C   UNL d   1     -32.007  20.774  25.304  0.00  0.00     0.180 C 
ATOM     10  O   UNL d   1     -31.767  19.645  25.684  0.00  0.00    -0.646 OA
BRANCH   9  11
ATOM     11  O   UNL d   1     -31.719  21.827  26.096  0.00  0.00    -0.773 OA
ATOM     12  H   UNL d   1     -31.790  21.691  27.050  0.00  0.00     0.167 HD
ENDBRANCH   9  11
ENDBRANCH   4   9
ENDBRANCH   1   3
BRANCH   1  13
ATOM     13  C   UNL d   1     -29.709  22.356  23.080  0.00  0.00     0.033 A 
ATOM     14  C   UNL d   1     -29.393  22.325  21.729  0.00  0.00     0.032 A 
ATOM     15  C   UNL d   1     -28.122  21.966  21.325  0.00  0.00     0.039 A 
ATOM     16  C   UNL d   1     -27.162  21.636  22.270  0.00  0.00     0.078 A 
ATOM     17  C   UNL d   1     -27.476  21.665  23.620  0.00  0.00     0.039 A 
ATOM     18  C   UNL d   1     -28.746  22.029  24.026  0.00  0.00     0.032 A 
BRANCH  16  19
ATOM     19  O   UNL d   1     -25.910  21.283  21.871  0.00  0.00    -0.255 OA
BRANCH  19  20
ATOM     20  C   UNL d   1     -24.914  22.306  21.880  0.00  0.00     0.530 C 
ATOM     21  F   UNL d   1     -25.374  23.400  22.620  0.00  0.00    -0.144 F 
ATOM     22  F   UNL d   1     -23.741  21.810  22.459  0.00  0.00    -0.144 F 
ATOM     23  F   UNL d   1     -24.649  22.710  20.567  0.00  0.00    -0.144 F 
ENDBRANCH  19  20
ENDBRANCH  16  19
ENDBRANCH   1  13
TORSDOF 6
ENDMDL
