MODEL 1
REMARK VINA RESULT:      -9.8      0.000      0.000
REMARK  5 active torsions:
REMARK  status: ('A' for Active; 'I' for Inactive)
REMARK    1  A    between atoms: C_2  and  N_3 
REMARK    2  A    between atoms: C_5  and  C_6 
REMARK    3  A    between atoms: C_9  and  C_10 
REMARK    4  A    between atoms: N_14  and  C_15 
REMARK    5  A    between atoms: C_29  and  C_30 
ROOT
ATOM      1  C   UNL d   1     -28.693  22.134  22.135  0.00  0.00     0.053 A 
ATOM      2  C   UNL d   1     -28.021  23.026  22.960  0.00  0.00     0.031 A 
ATOM      3  C   UNL d   1     -26.647  23.197  22.803  0.00  0.00    -0.011 A 
ATOM      4  C   UNL d   1     -25.884  24.127  23.640  0.00  0.00    -0.027 A 
ATOM      5  C   UNL d   1     -24.562  24.259  23.443  0.00  0.00     0.109 A 
ATOM      6  N   UNL d   1     -23.892  23.555  22.480  0.00  0.00    -0.288 N 
ATOM      7  C   UNL d   1     -24.513  22.683  21.663  0.00  0.00     0.263 A 
ATOM      8  O   UNL d   1     -23.881  22.074  20.817  0.00  0.00    -0.267 OA
ATOM      9  C   UNL d   1     -25.958  22.472  21.803  0.00  0.00     0.046 A 
ATOM     10  C   UNL d   1     -26.654  21.582  20.985  0.00  0.00     0.061 A 
ATOM     11  C   UNL d   1     -28.001  21.417  21.150  0.00  0.00     0.131 A 
ATOM     12  F   UNL d   1     -28.671  20.554  20.356  0.00  0.00    -0.205 F 
ENDROOT
BRANCH   1  13
ATOM     13  C   UNL d   1     -30.155  21.940  22.296  0.00  0.00     0.184 A 
ATOM     14  N   UNL d   1     -30.795  21.822  23.442  0.00  0.00    -0.149 NA
ATOM     15  N   UNL d   1     -32.053  21.668  23.205  0.00  0.00    -0.248 N 
ATOM     16  C   UNL d   1     -32.236  21.688  21.858  0.00  0.00     0.194 A 
ATOM     17  N   UNL d   1     -31.047  21.863  21.305  0.00  0.00    -0.204 NA
BRANCH  15  18
ATOM     18  C   UNL d   1     -33.104  21.501  24.213  0.00  0.00     0.149 C 
ATOM     19  C   UNL d   1     -32.954  20.134  24.884  0.00  0.00     0.028 C 
ENDBRANCH  15  18
BRANCH  16  20
ATOM     20  C   UNL d   1     -33.516  21.546  21.148  0.00  0.00     0.192 C 
ATOM     21  C   UNL d   1     -34.190  20.201  21.071  0.00  0.00     0.100 C 
ATOM     22  O   UNL d   1     -34.029  22.512  20.624  0.00  0.00    -0.289 OA
ENDBRANCH  16  20
ENDBRANCH   1  13
BRANCH   4  23
ATOM     23  C   UNL d   1     -26.575  24.925  24.715  0.00  0.00     0.013 C 
ATOM     24  C   UNL d   1     -25.670  26.077  25.156  0.00  0.00     0.015 C 
ATOM     25  C   UNL d   1     -26.869  24.020  25.913  0.00  0.00     0.015 C 
ENDBRANCH   4  23
BRANCH   6  26
ATOM     26  C   UNL d   1     -22.513  23.750  22.339  0.00  0.00     0.048 A 
ATOM     27  C   UNL d   1     -22.019  24.476  21.263  0.00  0.00    -0.035 A 
ATOM     28  C   UNL d   1     -20.658  24.666  21.126  0.00  0.00     0.009 A 
ATOM     29  C   UNL d   1     -22.968  25.055  20.244  0.00  0.00     0.050 C 
ATOM     30  C   UNL d   1     -19.787  24.135  22.060  0.00  0.00     0.001 A 
ATOM     31  C   UNL d   1     -20.276  23.412  23.133  0.00  0.00     0.002 A 
ATOM     32  C   UNL d   1     -21.636  23.222  23.278  0.00  0.00     0.030 A 
ENDBRANCH   6  26
TORSDOF 5
ENDMDL
