MODEL 1
REMARK VINA RESULT:      -8.9      0.000      0.000
REMARK  4 active torsions:
REMARK  status: ('A' for Active; 'I' for Inactive)
REMARK    1  A    between atoms: C_4  and  O_5 
REMARK    2  A    between atoms: C_8  and  S_9 
REMARK    3  A    between atoms: S_9  and  C_10 
REMARK    4  A    between atoms: C_10  and  C_11 
ROOT
ATOM      1  C   UNL d   1     -34.174  21.971  21.668  0.00  0.00     0.071 C 
ATOM      2  C   UNL d   1     -32.923  21.958  22.509  0.00  0.00     0.054 A 
ATOM      3  C   UNL d   1     -32.996  21.595  23.853  0.00  0.00     0.085 A 
ATOM      4  C   UNL d   1     -31.851  21.588  24.604  0.00  0.00     0.184 A 
ATOM      5  N   UNL d   1     -30.673  21.935  24.013  0.00  0.00    -0.035 N 
ATOM      6  N   UNL d   1     -29.357  22.028  24.482  0.00  0.00    -0.122 NA
ATOM      7  C   UNL d   1     -28.614  22.415  23.465  0.00  0.00     0.227 A 
ATOM      8  N   UNL d   1     -29.382  22.570  22.388  0.00  0.00    -0.033 NA
ATOM      9  C   UNL d   1     -30.644  22.284  22.693  0.00  0.00     0.754 A 
ATOM     10  N   UNL d   1     -31.768  22.287  21.970  0.00  0.00    -0.066 NA
ENDROOT
BRANCH   7  11
ATOM     11  S   UNL d   1     -26.875  22.692  23.524  0.00  0.00    -0.083 SA
BRANCH  11  12
ATOM     12  C   UNL d   1     -26.242  21.587  22.232  0.00  0.00     0.121 C 
BRANCH  12  13
ATOM     13  C   UNL d   1     -25.134  22.277  21.478  0.00  0.00    -0.049 A 
ATOM     14  C   UNL d   1     -24.239  23.087  22.153  0.00  0.00     0.008 A 
ATOM     15  C   UNL d   1     -23.223  23.720  21.462  0.00  0.00     0.001 A 
ATOM     16  C   UNL d   1     -23.101  23.542  20.096  0.00  0.00     0.000 A 
ATOM     17  C   UNL d   1     -23.996  22.732  19.421  0.00  0.00     0.001 A 
ATOM     18  C   UNL d   1     -25.009  22.096  20.113  0.00  0.00     0.008 A 
ENDBRANCH  12  13
ENDBRANCH  11  12
ENDBRANCH   7  11
BRANCH   4  19
ATOM     19  O   UNL d   1     -31.889  21.241  25.910  0.00  0.00    -0.344 OA
ATOM     20  H   UNL d   1     -31.020  21.191  26.330  0.00  0.00     0.219 HD
ENDBRANCH   4  19
TORSDOF 4
ENDMDL
