MODEL 1
REMARK VINA RESULT:     -10.6      0.000      0.000
REMARK  7 active torsions:
REMARK  status: ('A' for Active; 'I' for Inactive)
REMARK    1  A    between atoms: C_2  and  O_3 
REMARK    2  A    between atoms: C_2  and  C_32 
REMARK    3  A    between atoms: O_3  and  C_4 
REMARK    4  A    between atoms: C_6  and  N_7 
REMARK    5  A    between atoms: C_9  and  C_10 
REMARK       I    between atoms: C_10  and  N_11 
REMARK    6  A    between atoms: C_20  and  C_21 
REMARK       I    between atoms: C_21  and  N_23 
REMARK    7  A    between atoms: N_23  and  C_24 
ROOT
ATOM      1  C   UNL d   1     -24.725  23.312  22.666  0.00  0.00     0.087 A 
ATOM      2  C   UNL d   1     -25.987  22.768  22.839  0.00  0.00     0.073 A 
ATOM      3  C   UNL d   1     -26.838  23.280  23.808  0.00  0.00     0.105 A 
ATOM      4  C   UNL d   1     -26.429  24.348  24.607  0.00  0.00     0.146 A 
ATOM      5  F   UNL d   1     -27.262  24.842  25.548  0.00  0.00    -0.204 F 
ATOM      6  C   UNL d   1     -25.178  24.899  24.439  0.00  0.00     0.064 A 
ATOM      7  C   UNL d   1     -24.314  24.388  23.465  0.00  0.00     0.068 A 
ENDROOT
BRANCH   3   8
ATOM      8  N   UNL d   1     -28.109  22.726  23.983  0.00  0.00    -0.177 N 
ATOM      9  C   UNL d   1     -29.108  22.722  23.077  0.00  0.00     0.351 A 
ATOM     10  N   UNL d   1     -30.160  22.089  23.631  0.00  0.00    -0.281 N 
ATOM     11  O   UNL d   1     -29.065  23.201  21.959  0.00  0.00    -0.244 OA
ATOM     12  C   UNL d   1     -29.806  21.701  24.913  0.00  0.00     0.222 A 
ATOM     13  C   UNL d   1     -31.457  21.856  22.991  0.00  0.00     0.163 C 
ATOM     14  N   UNL d   1     -28.577  22.078  25.134  0.00  0.00    -0.139 NA
BRANCH  12  15
ATOM     15  C   UNL d   1     -30.673  20.983  25.866  0.00  0.00     0.287 C 
ATOM     16  N   UNL d   1     -30.453  19.678  26.124  0.00  0.00    -0.363 N 
ATOM     17  H   UNL d   1     -29.725  19.213  25.684  0.00  0.00     0.159 HD
ATOM     18  H   UNL d   1     -31.023  19.206  26.751  0.00  0.00     0.159 HD
ATOM     19  O   UNL d   1     -31.585  21.567  26.418  0.00  0.00    -0.264 OA
ENDBRANCH  12  15
ENDBRANCH   3   8
BRANCH   1  20
ATOM     20  O   UNL d   1     -23.890  22.807  21.722  0.00  0.00    -0.336 OA
BRANCH  20  21
ATOM     21  C   UNL d   1     -23.986  23.362  20.409  0.00  0.00     0.232 C 
ATOM     22  C   UNL d   1     -22.595  23.791  19.934  0.00  0.00     0.049 C 
BRANCH  21  23
ATOM     23  C   UNL d   1     -24.550  22.311  19.451  0.00  0.00     0.413 C 
ATOM     24  F   UNL d   1     -23.724  21.182  19.461  0.00  0.00    -0.168 F 
ATOM     25  F   UNL d   1     -25.838  21.951  19.859  0.00  0.00    -0.168 F 
ATOM     26  F   UNL d   1     -24.601  22.840  18.156  0.00  0.00    -0.168 F 
ENDBRANCH  21  23
ENDBRANCH  20  21
ENDBRANCH   1  20
BRANCH   7  27
ATOM     27  C   UNL d   1     -22.976  24.975  23.283  0.00  0.00     0.259 C 
ATOM     28  O   UNL d   1     -22.843  25.995  22.633  0.00  0.00    -0.267 OA
ATOM     29  N   UNL d   1     -21.899  24.385  23.837  0.00  0.00    -0.318 N 
ATOM     30  H   UNL d   1     -21.992  23.528  24.284  0.00  0.00     0.169 HD
BRANCH  29  31
ATOM     31  C   UNL d   1     -20.645  25.005  23.767  0.00  0.00     0.113 A 
ATOM     32  C   UNL d   1     -19.746  24.648  22.770  0.00  0.00     0.146 A 
ATOM     33  C   UNL d   1     -18.507  25.263  22.704  0.00  0.00     0.045 A 
ATOM     34  F   UNL d   1     -20.079  23.703  21.864  0.00  0.00    -0.204 F 
ATOM     35  C   UNL d   1     -18.165  26.230  23.630  0.00  0.00     0.006 A 
ATOM     36  C   UNL d   1     -19.056  26.588  24.625  0.00  0.00     0.045 A 
ATOM     37  C   UNL d   1     -20.298  25.983  24.693  0.00  0.00     0.146 A 
ATOM     38  F   UNL d   1     -21.171  26.336  25.662  0.00  0.00    -0.204 F 
ENDBRANCH  29  31
ENDBRANCH   7  27
TORSDOF 7
ENDMDL
