MODEL 1
REMARK VINA RESULT:      -9.8      0.000      0.000
REMARK  4 active torsions:
REMARK  status: ('A' for Active; 'I' for Inactive)
REMARK    1  A    between atoms: C_4  and  N_5 
REMARK    2  A    between atoms: N_5  and  C_6 
REMARK    3  A    between atoms: C_9  and  C_10 
REMARK    4  A    between atoms: C_18  and  C_19 
ROOT
ATOM      1  C   UNL d   1     -28.071  21.660  27.255  0.00  0.00     0.071 C 
ATOM      2  C   UNL d   1     -28.727  21.780  25.904  0.00  0.00     0.053 A 
ATOM      3  C   UNL d   1     -27.943  21.977  24.769  0.00  0.00     0.078 A 
ATOM      4  C   UNL d   1     -28.561  22.086  23.538  0.00  0.00     0.150 A 
ATOM      5  N   UNL d   1     -29.924  22.002  23.479  0.00  0.00    -0.041 N 
ATOM      6  N   UNL d   1     -30.846  22.074  22.427  0.00  0.00    -0.128 NA
ATOM      7  C   UNL d   1     -32.038  21.928  22.952  0.00  0.00     0.237 A 
ATOM      8  N   UNL d   1     -31.930  21.758  24.264  0.00  0.00    -0.037 NA
ATOM      9  C   UNL d   1     -30.651  21.803  24.619  0.00  0.00     0.753 A 
ATOM     10  N   UNL d   1     -30.038  21.700  25.803  0.00  0.00    -0.066 NA
ENDROOT
BRANCH   4  11
ATOM     11  N   UNL d   1     -27.819  22.281  22.394  0.00  0.00    -0.340 N 
ATOM     12  H   UNL d   1     -28.240  22.203  21.524  0.00  0.00     0.167 HD
BRANCH  11  13
ATOM     13  C   UNL d   1     -26.459  22.589  22.488  0.00  0.00     0.033 A 
ATOM     14  C   UNL d   1     -25.527  21.852  21.769  0.00  0.00     0.030 A 
ATOM     15  C   UNL d   1     -24.184  22.159  21.862  0.00  0.00     0.018 A 
ATOM     16  C   UNL d   1     -23.767  23.201  22.670  0.00  0.00     0.048 A 
ATOM     17  C   UNL d   1     -24.692  23.938  23.387  0.00  0.00     0.018 A 
ATOM     18  C   UNL d   1     -26.037  23.635  23.298  0.00  0.00     0.030 A 
BRANCH  16  19
ATOM     19  C   UNL d   1     -22.301  23.539  22.765  0.00  0.00     0.417 C 
ATOM     20  F   UNL d   1     -22.152  24.810  23.329  0.00  0.00    -0.166 F 
ATOM     21  F   UNL d   1     -21.656  22.593  23.569  0.00  0.00    -0.166 F 
ATOM     22  F   UNL d   1     -21.735  23.527  21.486  0.00  0.00    -0.166 F 
ENDBRANCH  16  19
ENDBRANCH  11  13
ENDBRANCH   4  11
BRANCH   7  23
ATOM     23  C   UNL d   1     -33.334  21.940  22.183  0.00  0.00     0.303 C 
ATOM     24  C   UNL d   1     -34.041  20.594  22.352  0.00  0.00     0.099 C 
ATOM     25  F   UNL d   1     -34.156  22.962  22.669  0.00  0.00    -0.198 F 
ATOM     26  F   UNL d   1     -33.068  22.161  20.827  0.00  0.00    -0.198 F 
ENDBRANCH   7  23
TORSDOF 4
ENDMDL
