MODEL 1
REMARK VINA RESULT:     -10.0      0.000      0.000
REMARK  6 active torsions:
REMARK  status: ('A' for Active; 'I' for Inactive)
REMARK    1  A    between atoms: O_2  and  C_3 
REMARK    2  A    between atoms: C_9  and  C_10 
REMARK    3  A    between atoms: C_10  and  C_11 
REMARK    4  A    between atoms: C_11  and  C_12 
REMARK    5  A    between atoms: CA_13  and  C_14 
REMARK    6  A    between atoms: C_14  and  OXT_16 
ROOT
ATOM      1  C   UNL d   1     -24.288  23.532  22.469  0.00  0.00     0.044 A 
ATOM      2  CA  UNL d   1     -24.314  22.910  21.262  0.00  0.00     0.122 A 
ATOM      3  N   UNL d   1     -23.537  23.394  20.233  0.00  0.00    -0.302 N 
ATOM      4  H   UNL d   1     -23.555  22.949  19.371  0.00  0.00     0.171 HD
ATOM      5  C   UNL d   1     -22.753  24.471  20.402  0.00  0.00     0.327 A 
ATOM      6  O   UNL d   1     -22.082  24.867  19.468  0.00  0.00    -0.247 OA
ATOM      7  N   UNL d   1     -22.691  25.124  21.576  0.00  0.00    -0.275 N 
ATOM      8  H   UNL d   1     -22.115  25.900  21.665  0.00  0.00     0.173 HD
ATOM      9  C   UNL d   1     -23.428  24.712  22.627  0.00  0.00     0.258 A 
ATOM     10  O   UNL d   1     -23.378  25.304  23.689  0.00  0.00    -0.267 OA
ENDROOT
BRANCH   1  11
ATOM     11  C   UNL d   1     -25.126  23.030  23.616  0.00  0.00     0.051 C 
BRANCH  11  12
ATOM     12  C   UNL d   1     -26.330  23.955  23.811  0.00  0.00     0.043 C 
BRANCH  12  13
ATOM     13  C   UNL d   1     -27.526  23.140  24.231  0.00  0.00    -0.057 A 
ATOM     14  C   UNL d   1     -28.624  23.098  23.428  0.00  0.00     0.019 A 
ATOM     15  C   UNL d   1     -29.739  22.336  23.816  0.00  0.00    -0.023 A 
ATOM     16  C   UNL d   1     -30.890  22.265  23.011  0.00  0.00     0.012 A 
ATOM     17  C   UNL d   1     -29.706  21.630  25.045  0.00  0.00     0.007 A 
ATOM     18  C   UNL d   1     -31.955  21.521  23.419  0.00  0.00     0.004 A 
ATOM     19  C   UNL d   1     -31.926  20.827  24.626  0.00  0.00     0.037 A 
ATOM     20  C   UNL d   1     -30.827  20.871  25.436  0.00  0.00     0.079 A 
ATOM     21  C   UNL d   1     -28.557  21.702  25.849  0.00  0.00     0.015 A 
ATOM     22  C   UNL d   1     -27.494  22.446  25.440  0.00  0.00     0.008 A 
BRANCH  20  23
ATOM     23  O   UNL d   1     -30.814  20.187  26.609  0.00  0.00    -0.355 OA
ATOM     24  C   UNL d   1     -31.242  18.824  26.569  0.00  0.00     0.210 C 
ENDBRANCH  20  23
ENDBRANCH  12  13
ENDBRANCH  11  12
ENDBRANCH   1  11
BRANCH   2  25
ATOM     25  C   UNL d   1     -25.172  21.718  21.054  0.00  0.00     0.194 C 
ATOM     26  O   UNL d   1     -26.253  21.835  20.513  0.00  0.00    -0.645 OA
BRANCH  25  27
ATOM     27  OXT UNL d   1     -24.754  20.507  21.467  0.00  0.00    -0.772 OA
ATOM     28  HXT UNL d   1     -24.078  20.069  20.931  0.00  0.00     0.167 HD
ENDBRANCH  25  27
ENDBRANCH   2  25
TORSDOF 6
ENDMDL
