MODEL 1
REMARK VINA RESULT:      -9.7      0.000      0.000
REMARK  6 active torsions:
REMARK  status: ('A' for Active; 'I' for Inactive)
REMARK    1  A    between atoms: C_2  and  N_3 
REMARK    2  A    between atoms: C_4  and  C_5 
REMARK    3  A    between atoms: C_5  and  O_6 
REMARK    4  A    between atoms: N_8  and  C_9 
REMARK    5  A    between atoms: C_12  and  C_13 
REMARK    6  A    between atoms: N_17  and  C_18 
ROOT
ATOM      1  C   UNL d   1     -29.279  22.075  21.991  0.00  0.00     0.103 A 
ATOM      2  C   UNL d   1     -28.512  22.789  22.896  0.00  0.00     0.048 A 
ATOM      3  C   UNL d   1     -27.136  22.879  22.703  0.00  0.00    -0.010 A 
ATOM      4  C   UNL d   1     -26.270  23.619  23.625  0.00  0.00    -0.028 A 
ATOM      5  C   UNL d   1     -24.950  23.673  23.391  0.00  0.00     0.103 A 
ATOM      6  N   UNL d   1     -24.372  23.059  22.316  0.00  0.00    -0.318 N 
ATOM      7  C   UNL d   1     -25.089  22.357  21.417  0.00  0.00     0.259 A 
ATOM      8  O   UNL d   1     -24.537  21.823  20.471  0.00  0.00    -0.267 OA
ATOM      9  C   UNL d   1     -26.540  22.242  21.588  0.00  0.00     0.046 A 
ATOM     10  C   UNL d   1     -27.335  21.528  20.690  0.00  0.00     0.062 A 
ATOM     11  C   UNL d   1     -28.684  21.444  20.896  0.00  0.00     0.146 A 
ATOM     12  F   UNL d   1     -29.450  20.748  20.028  0.00  0.00    -0.204 F 
ENDROOT
BRANCH   1  13
ATOM     13  N   UNL d   1     -30.661  21.980  22.178  0.00  0.00    -0.178 N 
ATOM     14  N   UNL d   1     -31.645  22.124  21.190  0.00  0.00    -0.147 NA
ATOM     15  C   UNL d   1     -32.803  21.968  21.748  0.00  0.00     0.154 A 
ATOM     16  N   UNL d   1     -32.619  21.722  23.087  0.00  0.00    -0.283 N 
ATOM     17  C   UNL d   1     -31.296  21.732  23.343  0.00  0.00     0.351 A 
ATOM     18  O   UNL d   1     -30.769  21.550  24.426  0.00  0.00    -0.244 OA
BRANCH  15  19
ATOM     19  C   UNL d   1     -34.134  22.043  21.045  0.00  0.00     0.244 C 
BRANCH  19  20
ATOM     20  O   UNL d   1     -34.796  23.256  21.408  0.00  0.00    -0.393 OA
ATOM     21  H   UNL d   1     -34.777  23.447  22.355  0.00  0.00     0.209 HD
ENDBRANCH  19  20
ENDBRANCH  15  19
BRANCH  16  22
ATOM     22  C   UNL d   1     -33.681  21.485  24.069  0.00  0.00     0.131 C 
ATOM     23  C   UNL d   1     -33.595  20.043  24.575  0.00  0.00     0.027 C 
ENDBRANCH  16  22
ENDBRANCH   1  13
BRANCH   4  24
ATOM     24  C   UNL d   1     -26.858  24.315  24.826  0.00  0.00     0.013 C 
ATOM     25  C   UNL d   1     -26.847  23.361  26.023  0.00  0.00     0.015 C 
ATOM     26  C   UNL d   1     -26.026  25.555  25.155  0.00  0.00     0.015 C 
ENDBRANCH   4  24
BRANCH   6  27
ATOM     27  C   UNL d   1     -22.922  23.168  22.135  0.00  0.00     0.096 C 
ATOM     28  C   UNL d   1     -22.335  24.148  23.166  0.00  0.00     0.005 C 
ATOM     29  C   UNL d   1     -21.682  25.292  22.365  0.00  0.00     0.006 C 
ATOM     30  C   UNL d   1     -21.281  23.438  24.021  0.00  0.00     0.012 C 
ATOM     31  C   UNL d   1     -22.415  25.267  21.001  0.00  0.00     0.002 C 
ATOM     32  C   UNL d   1     -22.606  23.753  20.742  0.00  0.00     0.026 C 
ENDBRANCH   6  27
TORSDOF 6
ENDMDL
