MODEL 1
REMARK VINA RESULT:     -11.7      0.000      0.000
REMARK  7 active torsions:
REMARK  status: ('A' for Active; 'I' for Inactive)
REMARK    1  A    between atoms: C_4  and  C_5 
REMARK    2  A    between atoms: C_5  and  O_7 
REMARK    3  A    between atoms: C_11  and  C_12 
REMARK    4  A    between atoms: C_15  and  C_16 
REMARK    5  A    between atoms: C_21  and  O_22 
REMARK    6  A    between atoms: O_22  and  C_23 
REMARK    7  A    between atoms: C_23  and  C_24 
ROOT
ATOM      1  C   UNL d   1     -26.146  23.221  23.103  0.00  0.00     0.010 A 
ATOM      2  C   UNL d   1     -25.706  24.454  23.589  0.00  0.00     0.016 A 
ATOM      3  C   UNL d   1     -24.388  24.823  23.438  0.00  0.00     0.013 A 
ATOM      4  C   UNL d   1     -23.492  23.965  22.800  0.00  0.00    -0.023 A 
ATOM      5  C   UNL d   1     -23.931  22.735  22.309  0.00  0.00     0.013 A 
ATOM      6  C   UNL d   1     -25.247  22.363  22.465  0.00  0.00     0.016 A 
ENDROOT
BRANCH   1   7
ATOM      7  C   UNL d   1     -27.560  22.823  23.265  0.00  0.00     0.139 A 
ATOM      8  N   UNL d   1     -28.099  22.270  24.396  0.00  0.00    -0.338 N 
ATOM      9  C   UNL d   1     -29.433  22.050  24.147  0.00  0.00     0.080 A 
ATOM     10  H   UNL d   1     -27.627  22.073  25.220  0.00  0.00     0.167 HD
ATOM     11  C   UNL d   1     -30.487  21.518  24.902  0.00  0.00     0.067 A 
ATOM     12  C   UNL d   1     -29.666  22.481  22.829  0.00  0.00     0.087 A 
ATOM     13  C   UNL d   1     -31.759  21.422  24.336  0.00  0.00     0.027 A 
ATOM     14  C   UNL d   1     -31.978  21.849  23.038  0.00  0.00    -0.059 A 
ATOM     15  C   UNL d   1     -33.358  21.739  22.441  0.00  0.00     0.048 C 
ATOM     16  C   UNL d   1     -30.950  22.374  22.286  0.00  0.00     0.040 A 
ATOM     17  N   UNL d   1     -28.486  22.942  22.346  0.00  0.00    -0.228 NA
BRANCH  11  18
ATOM     18  C   UNL d   1     -30.256  21.063  26.285  0.00  0.00     0.178 C 
ATOM     19  O   UNL d   1     -29.708  21.800  27.082  0.00  0.00    -0.646 OA
BRANCH  18  20
ATOM     20  O   UNL d   1     -30.651  19.833  26.666  0.00  0.00    -0.773 OA
ATOM     21  H   UNL d   1     -31.144  19.767  27.495  0.00  0.00     0.167 HD
ENDBRANCH  18  20
ENDBRANCH  11  18
ENDBRANCH   1   7
BRANCH   4  22
ATOM     22  C   UNL d   1     -22.074  24.363  22.638  0.00  0.00     0.007 A 
ATOM     23  C   UNL d   1     -21.506  25.311  23.497  0.00  0.00     0.080 A 
ATOM     24  C   UNL d   1     -20.181  25.680  23.334  0.00  0.00     0.037 A 
ATOM     25  C   UNL d   1     -19.420  25.107  22.333  0.00  0.00     0.003 A 
ATOM     26  C   UNL d   1     -19.976  24.165  21.485  0.00  0.00     0.001 A 
ATOM     27  C   UNL d   1     -21.297  23.791  21.632  0.00  0.00     0.015 A 
BRANCH  23  28
ATOM     28  O   UNL d   1     -22.254  25.869  24.483  0.00  0.00    -0.346 OA
BRANCH  28  29
ATOM     29  C   UNL d   1     -22.071  27.266  24.724  0.00  0.00     0.214 C 
BRANCH  29  30
ATOM     30  C   UNL d   1     -21.484  27.467  26.097  0.00  0.00    -0.034 A 
ATOM     31  C   UNL d   1     -21.575  28.700  26.714  0.00  0.00     0.009 A 
ATOM     32  C   UNL d   1     -21.037  28.885  27.975  0.00  0.00     0.001 A 
ATOM     33  C   UNL d   1     -20.408  27.836  28.618  0.00  0.00     0.000 A 
ATOM     34  C   UNL d   1     -20.317  26.602  28.000  0.00  0.00     0.001 A 
ATOM     35  C   UNL d   1     -20.859  26.416  26.743  0.00  0.00     0.009 A 
ENDBRANCH  29  30
ENDBRANCH  28  29
ENDBRANCH  23  28
ENDBRANCH   4  22
TORSDOF 7
ENDMDL
