MODEL 1
REMARK VINA RESULT:      -9.9      0.000      0.000
REMARK  8 active torsions:
REMARK  status: ('A' for Active; 'I' for Inactive)
REMARK    1  A    between atoms: C_2  and  C_3 
REMARK    2  A    between atoms: N_5  and  C_6 
REMARK    3  A    between atoms: C_8  and  O_9 
REMARK    4  A    between atoms: O_9  and  C_10 
REMARK    5  A    between atoms: C_10  and  C_12 
REMARK    6  A    between atoms: C_16  and  C_17 
REMARK       I    between atoms: C_17  and  N_19 
REMARK    7  A    between atoms: N_19  and  C_20 
REMARK    8  A    between atoms: N_33  and  C_34 
ROOT
ATOM      1  C   UNL d   1     -26.733  23.369  23.586  0.00  0.00     0.104 A 
ATOM      2  C   UNL d   1     -25.840  22.888  22.638  0.00  0.00     0.073 A 
ATOM      3  C   UNL d   1     -24.578  23.444  22.529  0.00  0.00     0.087 A 
ATOM      4  C   UNL d   1     -24.199  24.488  23.387  0.00  0.00     0.068 A 
ATOM      5  C   UNL d   1     -25.103  24.963  24.342  0.00  0.00     0.064 A 
ATOM      6  C   UNL d   1     -26.359  24.407  24.439  0.00  0.00     0.146 A 
ATOM      7  F   UNL d   1     -27.230  24.867  25.363  0.00  0.00    -0.204 F 
ENDROOT
BRANCH   4   8
ATOM      8  C   UNL d   1     -22.855  25.080  23.280  0.00  0.00     0.259 C 
ATOM      9  O   UNL d   1     -22.690  26.107  22.649  0.00  0.00    -0.267 OA
ATOM     10  N   UNL d   1     -21.807  24.484  23.883  0.00  0.00    -0.318 N 
ATOM     11  H   UNL d   1     -21.946  23.692  24.427  0.00  0.00     0.169 HD
BRANCH  10  12
ATOM     12  C   UNL d   1     -20.518  25.007  23.724  0.00  0.00     0.113 A 
ATOM     13  C   UNL d   1     -20.046  25.977  24.602  0.00  0.00     0.146 A 
ATOM     14  C   UNL d   1     -18.772  26.492  24.441  0.00  0.00     0.045 A 
ATOM     15  F   UNL d   1     -20.831  26.416  25.609  0.00  0.00    -0.204 F 
ATOM     16  C   UNL d   1     -17.968  26.043  23.410  0.00  0.00     0.006 A 
ATOM     17  C   UNL d   1     -18.433  25.079  22.535  0.00  0.00     0.045 A 
ATOM     18  C   UNL d   1     -19.703  24.554  22.693  0.00  0.00     0.146 A 
ATOM     19  F   UNL d   1     -20.155  23.608  21.840  0.00  0.00    -0.204 F 
ENDBRANCH  10  12
ENDBRANCH   4   8
BRANCH   3  20
ATOM     20  O   UNL d   1     -23.707  22.977  21.599  0.00  0.00    -0.336 OA
BRANCH  20  21
ATOM     21  C   UNL d   1     -23.844  23.483  20.270  0.00  0.00     0.232 C 
ATOM     22  C   UNL d   1     -22.473  23.920  19.746  0.00  0.00     0.049 C 
BRANCH  21  23
ATOM     23  C   UNL d   1     -24.411  22.390  19.363  0.00  0.00     0.413 C 
ATOM     24  F   UNL d   1     -25.671  22.003  19.832  0.00  0.00    -0.168 F 
ATOM     25  F   UNL d   1     -24.529  22.881  18.058  0.00  0.00    -0.168 F 
ATOM     26  F   UNL d   1     -23.552  21.286  19.370  0.00  0.00    -0.168 F 
ENDBRANCH  21  23
ENDBRANCH  20  21
ENDBRANCH   3  20
BRANCH   1  27
ATOM     27  N   UNL d   1     -28.008  22.809  23.690  0.00  0.00    -0.178 N 
ATOM     28  N   UNL d   1     -29.060  22.965  22.779  0.00  0.00    -0.149 NA
ATOM     29  C   UNL d   1     -30.076  22.291  23.216  0.00  0.00     0.130 A 
ATOM     30  N   UNL d   1     -29.733  21.694  24.404  0.00  0.00    -0.285 N 
ATOM     31  C   UNL d   1     -28.454  22.016  24.687  0.00  0.00     0.351 A 
ATOM     32  O   UNL d   1     -27.819  21.658  25.663  0.00  0.00    -0.244 OA
BRANCH  29  33
ATOM     33  C   UNL d   1     -31.416  22.183  22.536  0.00  0.00     0.076 C 
ATOM     34  C   UNL d   1     -31.219  22.179  21.019  0.00  0.00     0.013 C 
ENDBRANCH  29  33
BRANCH  30  35
ATOM     35  C   UNL d   1     -30.604  20.846  25.222  0.00  0.00     0.131 C 
ATOM     36  C   UNL d   1     -31.703  21.703  25.853  0.00  0.00     0.027 C 
ENDBRANCH  30  35
ENDBRANCH   1  27
TORSDOF 8
ENDMDL
