MODEL 1
REMARK VINA RESULT:     -10.2      0.000      0.000
REMARK  7 active torsions:
REMARK  status: ('A' for Active; 'I' for Inactive)
REMARK    1  A    between atoms: C_2  and  O_3 
REMARK    2  A    between atoms: C_2  and  C_33 
REMARK    3  A    between atoms: O_3  and  C_4 
REMARK    4  A    between atoms: C_6  and  N_7 
REMARK    5  A    between atoms: C_9  and  C_10 
REMARK    6  A    between atoms: C_21  and  C_22 
REMARK       I    between atoms: C_22  and  N_24 
REMARK    7  A    between atoms: N_24  and  C_25 
ROOT
ATOM      1  C   UNL d   1     -24.743  23.345  22.631  0.00  0.00     0.087 A 
ATOM      2  C   UNL d   1     -26.006  22.800  22.783  0.00  0.00     0.073 A 
ATOM      3  C   UNL d   1     -26.866  23.295  23.753  0.00  0.00     0.104 A 
ATOM      4  C   UNL d   1     -26.463  24.344  24.579  0.00  0.00     0.146 A 
ATOM      5  F   UNL d   1     -27.306  24.821  25.521  0.00  0.00    -0.204 F 
ATOM      6  C   UNL d   1     -25.209  24.894  24.437  0.00  0.00     0.064 A 
ATOM      7  C   UNL d   1     -24.335  24.400  23.462  0.00  0.00     0.068 A 
ENDROOT
BRANCH   7   8
ATOM      8  C   UNL d   1     -22.993  24.985  23.308  0.00  0.00     0.259 C 
ATOM      9  O   UNL d   1     -22.842  25.997  22.650  0.00  0.00    -0.267 OA
ATOM     10  N   UNL d   1     -21.931  24.399  23.896  0.00  0.00    -0.318 N 
ATOM     11  H   UNL d   1     -22.057  23.621  24.460  0.00  0.00     0.169 HD
BRANCH  10  12
ATOM     12  C   UNL d   1     -20.644  24.915  23.692  0.00  0.00     0.113 A 
ATOM     13  C   UNL d   1     -20.150  25.905  24.533  0.00  0.00     0.146 A 
ATOM     14  C   UNL d   1     -18.879  26.412  24.328  0.00  0.00     0.045 A 
ATOM     15  F   UNL d   1     -20.908  26.371  25.548  0.00  0.00    -0.204 F 
ATOM     16  C   UNL d   1     -18.100  25.935  23.289  0.00  0.00     0.006 A 
ATOM     17  C   UNL d   1     -18.590  24.950  22.450  0.00  0.00     0.045 A 
ATOM     18  C   UNL d   1     -19.858  24.433  22.652  0.00  0.00     0.146 A 
ATOM     19  F   UNL d   1     -20.332  23.468  21.836  0.00  0.00    -0.204 F 
ENDBRANCH  10  12
ENDBRANCH   7   8
BRANCH   1  20
ATOM     20  O   UNL d   1     -23.902  22.862  21.683  0.00  0.00    -0.336 OA
BRANCH  20  21
ATOM     21  C   UNL d   1     -24.034  23.398  20.365  0.00  0.00     0.232 C 
ATOM     22  C   UNL d   1     -22.669  23.877  19.870  0.00  0.00     0.049 C 
BRANCH  21  23
ATOM     23  C   UNL d   1     -24.565  22.314  19.425  0.00  0.00     0.413 C 
ATOM     24  F   UNL d   1     -25.856  21.944  19.820  0.00  0.00    -0.168 F 
ATOM     25  F   UNL d   1     -24.602  22.809  18.117  0.00  0.00    -0.168 F 
ATOM     26  F   UNL d   1     -23.723  21.198  19.477  0.00  0.00    -0.168 F 
ENDBRANCH  21  23
ENDBRANCH  20  21
ENDBRANCH   1  20
BRANCH   3  27
ATOM     27  N   UNL d   1     -28.138  22.738  23.906  0.00  0.00    -0.177 N 
ATOM     28  C   UNL d   1     -29.150  22.798  23.015  0.00  0.00     0.351 A 
ATOM     29  N   UNL d   1     -30.196  22.135  23.548  0.00  0.00    -0.281 N 
ATOM     30  O   UNL d   1     -29.123  23.348  21.929  0.00  0.00    -0.244 OA
ATOM     31  C   UNL d   1     -29.826  21.667  24.786  0.00  0.00     0.238 A 
ATOM     32  C   UNL d   1     -31.505  21.948  22.917  0.00  0.00     0.163 C 
ATOM     33  N   UNL d   1     -28.602  22.018  25.015  0.00  0.00    -0.140 NA
BRANCH  31  34
ATOM     34  C   UNL d   1     -30.702  20.876  25.723  0.00  0.00     0.453 C 
ATOM     35  F   UNL d   1     -29.956  20.482  26.838  0.00  0.00    -0.163 F 
ATOM     36  F   UNL d   1     -31.778  21.669  26.137  0.00  0.00    -0.163 F 
ATOM     37  F   UNL d   1     -31.186  19.741  25.061  0.00  0.00    -0.163 F 
ENDBRANCH  31  34
ENDBRANCH   3  27
TORSDOF 7
ENDMDL
