MODEL 1
REMARK VINA RESULT:      -9.1      0.000      0.000
REMARK  4 active torsions:
REMARK  status: ('A' for Active; 'I' for Inactive)
REMARK    1  A    between atoms: C_4  and  O_5 
REMARK    2  A    between atoms: C_8  and  S_9 
REMARK    3  A    between atoms: S_9  and  C_10 
REMARK    4  A    between atoms: C_10  and  C_11 
ROOT
ATOM      1  C   UNL d   1     -33.295  21.691  22.301  0.00  0.00     0.071 C 
ATOM      2  C   UNL d   1     -32.017  21.822  23.089  0.00  0.00     0.054 A 
ATOM      3  C   UNL d   1     -31.983  21.430  24.426  0.00  0.00     0.085 A 
ATOM      4  C   UNL d   1     -30.815  21.555  25.128  0.00  0.00     0.184 A 
ATOM      5  N   UNL d   1     -29.719  22.060  24.497  0.00  0.00    -0.035 N 
ATOM      6  N   UNL d   1     -28.404  22.313  24.912  0.00  0.00    -0.122 NA
ATOM      7  C   UNL d   1     -27.762  22.808  23.875  0.00  0.00     0.227 A 
ATOM      8  N   UNL d   1     -28.591  22.883  22.835  0.00  0.00    -0.033 NA
ATOM      9  C   UNL d   1     -29.791  22.434  23.186  0.00  0.00     0.754 A 
ATOM     10  N   UNL d   1     -30.939  22.307  22.509  0.00  0.00    -0.066 NA
ENDROOT
BRANCH   7  11
ATOM     11  S   UNL d   1     -26.069  23.298  23.865  0.00  0.00    -0.083 SA
BRANCH  11  12
ATOM     12  C   UNL d   1     -25.423  22.503  22.368  0.00  0.00     0.122 C 
BRANCH  12  13
ATOM     13  C   UNL d   1     -24.171  23.214  21.922  0.00  0.00    -0.027 A 
ATOM     14  C   UNL d   1     -23.805  23.199  20.588  0.00  0.00     0.041 A 
ATOM     15  C   UNL d   1     -22.659  23.857  20.179  0.00  0.00     0.024 A 
ATOM     16 CL   UNL d   1     -24.788  22.363  19.428  0.00  0.00    -0.084 Cl
ATOM     17  C   UNL d   1     -21.874  24.519  21.105  0.00  0.00     0.002 A 
ATOM     18  C   UNL d   1     -22.237  24.527  22.439  0.00  0.00     0.001 A 
ATOM     19  C   UNL d   1     -23.385  23.875  22.848  0.00  0.00     0.009 A 
ENDBRANCH  12  13
ENDBRANCH  11  12
ENDBRANCH   7  11
BRANCH   4  20
ATOM     20  O   UNL d   1     -30.750  21.183  26.427  0.00  0.00    -0.344 OA
ATOM     21  H   UNL d   1     -30.538  20.248  26.558  0.00  0.00     0.219 HD
ENDBRANCH   4  20
TORSDOF 4
ENDMDL
