MODEL 1
REMARK VINA RESULT:      -8.1      0.000      0.000
REMARK  8 active torsions:
REMARK  status: ('A' for Active; 'I' for Inactive)
REMARK    1  A    between atoms: C_2  and  O_3 
REMARK    2  A    between atoms: O_3  and  C_4 
REMARK    3  A    between atoms: C_4  and  C_6 
REMARK    4  A    between atoms: C_6  and  C_7 
REMARK    5  A    between atoms: C_6  and  C_16 
REMARK    6  A    between atoms: N_8  and  C_9 
REMARK    7  A    between atoms: C_16  and  O_18 
REMARK    8  A    between atoms: O_18  and  C_19 
ROOT
ATOM      1  C   UNL d   1     -31.334  22.284  24.047  0.00  0.00     0.225 C 
ENDROOT
BRANCH   1   2
ATOM      2  C   UNL d   1     -32.562  21.911  23.256  0.00  0.00     0.277 C 
ATOM      3  O   UNL d   1     -33.635  21.837  23.804  0.00  0.00    -0.264 OA
BRANCH   2   4
ATOM      4  O   UNL d   1     -32.461  21.658  21.941  0.00  0.00    -0.321 OA
BRANCH   4   5
ATOM      5  C   UNL d   1     -33.695  21.391  21.224  0.00  0.00     0.174 C 
ATOM      6  C   UNL d   1     -33.941  19.882  21.178  0.00  0.00     0.034 C 
ENDBRANCH   4   5
ENDBRANCH   2   4
ENDBRANCH   1   2
BRANCH   1   7
ATOM      7  C   UNL d   1     -30.103  22.002  23.225  0.00  0.00     0.115 C 
ATOM      8  N   UNL d   1     -29.043  22.721  23.383  0.00  0.00    -0.263 NA
BRANCH   8   9
ATOM      9  C   UNL d   1     -27.888  22.397  22.714  0.00  0.00     0.062 A 
ATOM     10  C   UNL d   1     -26.650  22.795  23.220  0.00  0.00    -0.033 A 
ATOM     11  C   UNL d   1     -25.493  22.470  22.540  0.00  0.00     0.009 A 
ATOM     12  C   UNL d   1     -26.577  23.583  24.503  0.00  0.00     0.050 C 
ATOM     13  C   UNL d   1     -25.559  21.749  21.362  0.00  0.00     0.001 A 
ATOM     14  C   UNL d   1     -26.783  21.347  20.858  0.00  0.00     0.002 A 
ATOM     15  C   UNL d   1     -27.947  21.664  21.528  0.00  0.00     0.032 A 
ENDBRANCH   8   9
ENDBRANCH   1   7
BRANCH   1  16
ATOM     16  C   UNL d   1     -31.288  21.473  25.316  0.00  0.00     0.277 C 
ATOM     17  O   UNL d   1     -31.432  22.015  26.385  0.00  0.00    -0.264 OA
BRANCH  16  18
ATOM     18  O   UNL d   1     -31.087  20.146  25.257  0.00  0.00    -0.321 OA
BRANCH  18  19
ATOM     19  C   UNL d   1     -32.109  19.298  25.843  0.00  0.00     0.174 C 
ATOM     20  C   UNL d   1     -31.445  18.139  26.588  0.00  0.00     0.034 C 
ENDBRANCH  18  19
ENDBRANCH  16  18
ENDBRANCH   1  16
TORSDOF 8
ENDMDL
