MODEL 1
REMARK VINA RESULT:     -10.4      0.000      0.000
REMARK  5 active torsions:
REMARK  status: ('A' for Active; 'I' for Inactive)
REMARK    1  A    between atoms: C_5  and  N_6 
REMARK    2  A    between atoms: N_6  and  C_7 
REMARK    3  A    between atoms: C_10  and  C_11 
REMARK    4  A    between atoms: C_20  and  C_21 
REMARK    5  A    between atoms: C_21  and  O_23 
ROOT
ATOM      1  C   UNL d   1     -27.140  22.592  23.647  0.00  0.00     0.050 A 
ATOM      2  C   UNL d   1     -26.651  21.795  22.612  0.00  0.00     0.033 A 
ATOM      3  C   UNL d   1     -25.442  22.132  22.036  0.00  0.00     0.035 A 
ATOM      4  C   UNL d   1     -24.749  23.246  22.512  0.00  0.00     0.070 A 
ATOM      5  N   UNL d   1     -25.243  23.977  23.503  0.00  0.00    -0.258 NA
ATOM      6  C   UNL d   1     -26.395  23.686  24.070  0.00  0.00     0.146 A 
ENDROOT
BRANCH   1   7
ATOM      7  N   UNL d   1     -28.360  22.289  24.255  0.00  0.00    -0.354 N 
ATOM      8  H   UNL d   1     -28.402  22.144  25.212  0.00  0.00     0.166 HD
BRANCH   7   9
ATOM      9  C   UNL d   1     -29.514  22.197  23.487  0.00  0.00     0.049 A 
ATOM     10  C   UNL d   1     -29.482  22.513  22.134  0.00  0.00     0.031 A 
ATOM     11  C   UNL d   1     -30.631  22.425  21.375  0.00  0.00     0.009 A 
ATOM     12  C   UNL d   1     -31.821  22.011  21.951  0.00  0.00    -0.061 A 
ATOM     13  C   UNL d   1     -33.067  21.912  21.107  0.00  0.00     0.048 C 
ATOM     14  C   UNL d   1     -31.875  21.692  23.290  0.00  0.00     0.027 A 
ATOM     15  C   UNL d   1     -30.721  21.781  24.074  0.00  0.00     0.064 A 
BRANCH  15  16
ATOM     16  C   UNL d   1     -30.771  21.443  25.507  0.00  0.00     0.178 C 
ATOM     17  O   UNL d   1     -31.597  21.969  26.226  0.00  0.00    -0.646 OA
BRANCH  16  18
ATOM     18  O   UNL d   1     -29.901  20.552  26.020  0.00  0.00    -0.773 OA
ATOM     19  H   UNL d   1     -29.639  19.815  25.451  0.00  0.00     0.167 HD
ENDBRANCH  16  18
ENDBRANCH  15  16
ENDBRANCH   7   9
ENDBRANCH   1   7
BRANCH   4  20
ATOM     20  C   UNL d   1     -23.448  23.614  21.906  0.00  0.00     0.034 A 
ATOM     21  C   UNL d   1     -22.264  23.552  22.651  0.00  0.00     0.146 A 
ATOM     22  C   UNL d   1     -21.072  23.905  22.045  0.00  0.00     0.159 A 
ATOM     23  F   UNL d   1     -22.286  23.151  23.941  0.00  0.00    -0.204 F 
ATOM     24  N   UNL d   1     -21.044  24.296  20.786  0.00  0.00    -0.270 NA
ATOM     25  C   UNL d   1     -22.136  24.369  20.050  0.00  0.00     0.117 A 
ATOM     26  C   UNL d   1     -23.367  24.029  20.574  0.00  0.00     0.036 A 
ENDBRANCH   4  20
TORSDOF 5
ENDMDL
