MODEL 1
REMARK VINA RESULT:     -10.4      0.000      0.000
REMARK  7 active torsions:
REMARK  status: ('A' for Active; 'I' for Inactive)
REMARK    1  A    between atoms: C_2  and  O_3 
REMARK    2  A    between atoms: O_3  and  C_4 
REMARK    3  A    between atoms: C_6  and  N_7 
REMARK       I    between atoms: N_7  and  C_8 
REMARK    4  A    between atoms: C_8  and  C_10 
REMARK    5  A    between atoms: C_13  and  O_15 
REMARK    6  A    between atoms: C_19  and  C_20 
REMARK    7  A    between atoms: C_24  and  O_25 
ROOT
ATOM      1  C   UNL d   1     -30.618  21.958  23.905  0.00  0.00     0.141 C 
ATOM      2  C   UNL d   1     -30.679  21.639  25.299  0.00  0.00     0.107 C 
ATOM      3  N   UNL d   1     -30.729  21.386  26.405  0.00  0.00    -0.191 NA
ATOM      4  C   UNL d   1     -31.741  21.879  23.136  0.00  0.00     0.065 C 
ATOM      5  C   UNL d   1     -33.049  21.457  23.755  0.00  0.00     0.077 C 
ENDROOT
BRANCH   1   6
ATOM      6  C   UNL d   1     -29.342  22.369  23.300  0.00  0.00     0.269 C 
ATOM      7  N   UNL d   1     -28.198  21.749  23.652  0.00  0.00    -0.320 N 
ATOM      8  H   UNL d   1     -28.226  20.980  24.242  0.00  0.00     0.169 HD
ATOM      9  O   UNL d   1     -29.318  23.271  22.483  0.00  0.00    -0.266 OA
BRANCH   7  10
ATOM     10  C   UNL d   1     -26.972  22.215  23.167  0.00  0.00     0.076 A 
ATOM     11  C   UNL d   1     -26.288  23.210  23.853  0.00  0.00     0.070 A 
ATOM     12  C   UNL d   1     -25.072  23.668  23.378  0.00  0.00     0.082 A 
ATOM     13  C   UNL d   1     -24.539  23.135  22.201  0.00  0.00     0.011 A 
ATOM     14  C   UNL d   1     -25.229  22.136  21.516  0.00  0.00     0.059 A 
ATOM     15  C   UNL d   1     -26.439  21.680  21.999  0.00  0.00     0.144 A 
ATOM     16  F   UNL d   1     -27.108  20.712  21.334  0.00  0.00    -0.204 F 
BRANCH  12  17
ATOM     17  O   UNL d   1     -24.400  24.638  24.052  0.00  0.00    -0.351 OA
BRANCH  17  18
ATOM     18  C   UNL d   1     -24.753  25.992  23.763  0.00  0.00     0.171 C 
ATOM     19  C   UNL d   1     -23.499  26.773  23.368  0.00  0.00     0.034 C 
ENDBRANCH  17  18
ENDBRANCH  12  17
BRANCH  13  20
ATOM     20  C   UNL d   1     -23.239  23.627  21.684  0.00  0.00    -0.021 A 
ATOM     21  C   UNL d   1     -22.093  23.530  22.470  0.00  0.00     0.049 A 
ATOM     22  C   UNL d   1     -20.883  23.997  21.984  0.00  0.00     0.069 A 
ATOM     23  C   UNL d   1     -20.813  24.556  20.715  0.00  0.00     0.037 A 
ATOM     24  C   UNL d   1     -21.950  24.648  19.932  0.00  0.00     0.004 A 
ATOM     25  C   UNL d   1     -23.159  24.185  20.408  0.00  0.00     0.012 A 
BRANCH  22  26
ATOM     26  O   UNL d   1     -19.763  23.909  22.750  0.00  0.00    -0.356 OA
ATOM     27  C   UNL d   1     -19.724  24.704  23.936  0.00  0.00     0.210 C 
ENDBRANCH  22  26
ENDBRANCH  13  20
ENDBRANCH   7  10
ENDBRANCH   1   6
BRANCH   4  28
ATOM     28  O   UNL d   1     -31.683  22.179  21.828  0.00  0.00    -0.364 OA
ATOM     29  H   UNL d   1     -32.330  21.750  21.251  0.00  0.00     0.217 HD
ENDBRANCH   4  28
TORSDOF 7
ENDMDL
