MODEL 1
REMARK VINA RESULT:     -10.4      0.000      0.000
REMARK  6 active torsions:
REMARK  status: ('A' for Active; 'I' for Inactive)
REMARK    1  A    between atoms: O_2  and  C_3 
REMARK    2  A    between atoms: C_6  and  C_7 
REMARK    3  A    between atoms: C_9  and  C_10 
REMARK    4  A    between atoms: C_10  and  O_12 
REMARK    5  A    between atoms: O_12  and  C_13 
REMARK    6  A    between atoms: C_13  and  C_14 
ROOT
ATOM      1  C   UNL d   1     -25.678  23.409  23.537  0.00  0.00     0.068 A 
ATOM      2  C   UNL d   1     -26.537  23.094  22.472  0.00  0.00     0.051 A 
ATOM      3  C   UNL d   1     -27.767  22.510  22.740  0.00  0.00     0.054 A 
ATOM      4  C   UNL d   1     -28.098  22.252  24.143  0.00  0.00     0.009 A 
ATOM      5  C   UNL d   1     -29.313  21.668  24.511  0.00  0.00     0.021 A 
ATOM      6  C   UNL d   1     -29.582  21.447  25.830  0.00  0.00    -0.061 A 
ATOM      7  C   UNL d   1     -30.892  20.817  26.228  0.00  0.00     0.048 C 
ATOM      8  C   UNL d   1     -28.660  21.796  26.815  0.00  0.00     0.009 A 
ATOM      9  C   UNL d   1     -27.468  22.367  26.490  0.00  0.00     0.033 A 
ATOM     10  C   UNL d   1     -27.156  22.611  25.139  0.00  0.00     0.068 A 
ATOM     11  N   UNL d   1     -25.996  23.169  24.791  0.00  0.00    -0.247 NA
ENDROOT
BRANCH   3  12
ATOM     12  C   UNL d   1     -28.706  22.160  21.653  0.00  0.00     0.294 C 
ATOM     13  O   UNL d   1     -28.445  21.249  20.893  0.00  0.00    -0.259 OA
BRANCH  12  14
ATOM     14  O   UNL d   1     -29.852  22.853  21.505  0.00  0.00    -0.313 OA
BRANCH  14  15
ATOM     15  C   UNL d   1     -30.886  22.249  20.685  0.00  0.00     0.217 C 
BRANCH  15  16
ATOM     16  C   UNL d   1     -32.025  21.798  21.564  0.00  0.00    -0.034 A 
ATOM     17  C   UNL d   1     -32.085  22.210  22.881  0.00  0.00     0.009 A 
ATOM     18  C   UNL d   1     -33.129  21.797  23.688  0.00  0.00     0.001 A 
ATOM     19  C   UNL d   1     -34.114  20.973  23.176  0.00  0.00     0.000 A 
ATOM     20  C   UNL d   1     -34.054  20.562  21.857  0.00  0.00     0.001 A 
ATOM     21  C   UNL d   1     -33.013  20.979  21.049  0.00  0.00     0.009 A 
ENDBRANCH  15  16
ENDBRANCH  14  15
ENDBRANCH  12  14
ENDBRANCH   3  12
BRANCH   1  22
ATOM     22  C   UNL d   1     -24.368  24.033  23.237  0.00  0.00    -0.007 A 
ATOM     23  C   UNL d   1     -23.299  23.243  22.812  0.00  0.00     0.016 A 
ATOM     24  C   UNL d   1     -22.081  23.827  22.533  0.00  0.00     0.037 A 
ATOM     25  C   UNL d   1     -21.919  25.199  22.673  0.00  0.00     0.068 A 
ATOM     26  C   UNL d   1     -22.981  25.988  23.094  0.00  0.00     0.037 A 
ATOM     27  C   UNL d   1     -24.203  25.411  23.370  0.00  0.00     0.016 A 
BRANCH  25  28
ATOM     28  O   UNL d   1     -20.718  25.771  22.398  0.00  0.00    -0.356 OA
ATOM     29  C   UNL d   1     -19.550  25.051  22.796  0.00  0.00     0.210 C 
ENDBRANCH  25  28
ENDBRANCH   1  22
TORSDOF 6
ENDMDL
