MODEL 1
REMARK VINA RESULT:      -9.0      0.000      0.000
REMARK  7 active torsions:
REMARK  status: ('A' for Active; 'I' for Inactive)
REMARK    1  A    between atoms: C_7  and  N_8 
REMARK       I    between atoms: N_8  and  C_9 
REMARK    2  A    between atoms: C_9  and  C_11 
REMARK    3  A    between atoms: C_15  and  N_16 
REMARK    4  A    between atoms: C_27  and  O_28 
REMARK    5  A    between atoms: O_28  and  C_29 
REMARK    6  A    between atoms: C_29  and  C_31 
REMARK    7  A    between atoms: C_31  and  N_32 
ROOT
ATOM      1  C   UNL d   1     -25.658  22.561  22.257  0.00  0.00     0.068 A 
ATOM      2  C   UNL d   1     -26.262  21.629  21.405  0.00  0.00     0.064 A 
ATOM      3  C   UNL d   1     -27.631  21.480  21.409  0.00  0.00     0.146 A 
ATOM      4  F   UNL d   1     -28.213  20.580  20.586  0.00  0.00    -0.204 F 
ATOM      5  C   UNL d   1     -28.418  22.256  22.259  0.00  0.00     0.104 A 
ATOM      6  C   UNL d   1     -27.828  23.187  23.103  0.00  0.00     0.073 A 
ATOM      7  C   UNL d   1     -26.452  23.341  23.111  0.00  0.00     0.087 A 
ENDROOT
BRANCH   1   8
ATOM      8  C   UNL d   1     -24.194  22.724  22.256  0.00  0.00     0.260 C 
ATOM      9  N   UNL d   1     -23.654  23.959  22.242  0.00  0.00    -0.305 N 
ATOM     10  H   UNL d   1     -24.228  24.740  22.233  0.00  0.00     0.170 HD
ATOM     11  O   UNL d   1     -23.474  21.744  22.267  0.00  0.00    -0.267 OA
BRANCH   9  12
ATOM     12  C   UNL d   1     -22.269  24.112  22.241  0.00  0.00     0.158 A 
ATOM     13  C   UNL d   1     -21.586  24.290  21.039  0.00  0.00    -0.013 A 
ATOM     14  C   UNL d   1     -22.322  24.319  19.724  0.00  0.00     0.052 C 
ATOM     15  C   UNL d   1     -20.209  24.439  21.091  0.00  0.00     0.031 A 
ATOM     16  C   UNL d   1     -19.595  24.402  22.335  0.00  0.00     0.141 A 
ATOM     17  N   UNL d   1     -20.320  24.229  23.423  0.00  0.00    -0.161 NA
ATOM     18  N   UNL d   1     -21.596  24.095  23.382  0.00  0.00    -0.132 NA
ENDBRANCH   9  12
ENDBRANCH   1   8
BRANCH   7  19
ATOM     19  O   UNL d   1     -25.874  24.246  23.939  0.00  0.00    -0.343 OA
BRANCH  19  20
ATOM     20  C   UNL d   1     -26.190  24.149  25.330  0.00  0.00     0.153 C 
ATOM     21  C   UNL d   1     -26.707  25.498  25.831  0.00  0.00     0.042 C 
BRANCH  20  22
ATOM     22  C   UNL d   1     -27.268  23.082  25.534  0.00  0.00     0.303 C 
BRANCH  22  23
ATOM     23  N   UNL d   1     -27.290  22.672  26.944  0.00  0.00     0.082 N 
ATOM     24  C   UNL d   1     -28.627  22.852  27.524  0.00  0.00     0.309 C 
ATOM     25  C   UNL d   1     -26.832  21.285  27.096  0.00  0.00     0.309 C 
ENDBRANCH  22  23
ENDBRANCH  20  22
ENDBRANCH  19  20
ENDBRANCH   7  19
BRANCH   5  26
ATOM     26  N   UNL d   1     -29.806  22.101  22.257  0.00  0.00    -0.178 N 
ATOM     27  C   UNL d   1     -30.580  21.805  23.323  0.00  0.00     0.351 A 
ATOM     28  N   UNL d   1     -31.854  21.775  22.899  0.00  0.00    -0.284 N 
ATOM     29  O   UNL d   1     -30.194  21.600  24.461  0.00  0.00    -0.244 OA
ATOM     30  C   UNL d   1     -31.864  22.018  21.539  0.00  0.00     0.131 A 
ATOM     31  C   UNL d   1     -33.059  21.551  23.704  0.00  0.00     0.135 C 
ATOM     32  N   UNL d   1     -30.653  22.220  21.145  0.00  0.00    -0.149 NA
ATOM     33  C   UNL d   1     -33.119  22.024  20.698  0.00  0.00     0.081 C 
ATOM     34  C   UNL d   1     -34.321  22.182  21.640  0.00  0.00     0.009 C 
ATOM     35  C   UNL d   1     -34.208  21.154  22.769  0.00  0.00     0.021 C 
ENDBRANCH   5  26
TORSDOF 7
ENDMDL
