MODEL 1
REMARK VINA RESULT:     -10.6      0.000      0.000
REMARK  3 active torsions:
REMARK  status: ('A' for Active; 'I' for Inactive)
REMARK    1  A    between atoms: C_3  and  O_4 
REMARK    2  A    between atoms: C_5  and  N_6 
REMARK    3  A    between atoms: N_6  and  C_7 
ROOT
ATOM      1  O   UNL d   1     -23.888  22.253  20.961  0.00  0.00    -0.284 OA
ATOM      2  C   UNL d   1     -24.578  22.758  21.826  0.00  0.00     0.218 A 
ATOM      3  C   UNL d   1     -25.784  22.070  22.301  0.00  0.00     0.148 A 
ATOM      4  C   UNL d   1     -26.564  22.621  23.266  0.00  0.00     0.121 A 
ATOM      5  C   UNL d   1     -26.221  23.930  23.855  0.00  0.00     0.212 A 
ATOM      6  O   UNL d   1     -26.931  24.417  24.714  0.00  0.00    -0.285 OA
ATOM      7  C   UNL d   1     -25.008  24.645  23.400  0.00  0.00     0.031 A 
ATOM      8  C   UNL d   1     -24.662  25.875  23.943  0.00  0.00     0.016 A 
ATOM      9  C   UNL d   1     -23.524  26.530  23.498  0.00  0.00     0.001 A 
ATOM     10  C   UNL d   1     -22.732  25.966  22.515  0.00  0.00     0.001 A 
ATOM     11  C   UNL d   1     -23.065  24.737  21.964  0.00  0.00     0.016 A 
ATOM     12  C   UNL d   1     -24.202  24.070  22.401  0.00  0.00     0.031 A 
ENDROOT
BRANCH   4  13
ATOM     13  N   UNL d   1     -27.698  21.951  23.697  0.00  0.00    -0.351 N 
ATOM     14  H   UNL d   1     -27.670  21.426  24.513  0.00  0.00     0.166 HD
BRANCH  13  15
ATOM     15  C   UNL d   1     -28.880  22.030  22.957  0.00  0.00     0.035 A 
ATOM     16  C   UNL d   1     -30.108  21.903  23.593  0.00  0.00     0.069 A 
ATOM     17  C   UNL d   1     -31.280  21.983  22.858  0.00  0.00     0.104 A 
ATOM     18  C   UNL d   1     -31.225  22.197  21.486  0.00  0.00     0.102 A 
ATOM     19  O   UNL d   1     -32.477  21.852  23.495  0.00  0.00    -0.346 OA
ATOM     20  C   UNL d   1     -29.996  22.316  20.852  0.00  0.00     0.042 A 
ATOM     21  O   UNL d   1     -32.367  22.280  20.747  0.00  0.00    -0.346 OA
ATOM     22  C   UNL d   1     -28.828  22.236  21.584  0.00  0.00     0.032 A 
ATOM     23  C   UNL d   1     -33.564  21.777  21.352  0.00  0.00     0.202 C 
ATOM     24  C   UNL d   1     -33.635  22.310  22.790  0.00  0.00     0.202 C 
ENDBRANCH  13  15
ENDBRANCH   4  13
BRANCH   3  25
ATOM     25  O   UNL d   1     -26.123  20.867  21.769  0.00  0.00    -0.355 OA
ATOM     26  H   UNL d   1     -25.373  20.270  21.636  0.00  0.00     0.218 HD
ENDBRANCH   3  25
TORSDOF 3
ENDMDL
