MODEL 1
REMARK VINA RESULT:     -11.1      0.000      0.000
REMARK  7 active torsions:
REMARK  status: ('A' for Active; 'I' for Inactive)
REMARK    1  A    between atoms: C_2  and  O_3 
REMARK    2  A    between atoms: C_2  and  C_4 
REMARK    3  A    between atoms: C_5  and  C_6 
REMARK       I    between atoms: C_6  and  N_8 
REMARK    4  A    between atoms: N_8  and  C_9 
REMARK    5  A    between atoms: C_13  and  C_14 
REMARK    6  A    between atoms: C_18  and  O_19 
REMARK    7  A    between atoms: O_19  and  C_20 
ROOT
ATOM      1  C   UNL d   1     -27.497  22.032  23.353  0.00  0.00     0.113 A 
ATOM      2  C   UNL d   1     -26.775  22.925  24.139  0.00  0.00     0.147 A 
ATOM      3  F   UNL d   1     -27.281  23.345  25.320  0.00  0.00    -0.204 F 
ATOM      4  C   UNL d   1     -25.541  23.377  23.717  0.00  0.00     0.057 A 
ATOM      5  C   UNL d   1     -25.022  22.946  22.497  0.00  0.00    -0.020 A 
ATOM      6  C   UNL d   1     -25.749  22.055  21.707  0.00  0.00     0.057 A 
ATOM      7  C   UNL d   1     -26.980  21.601  22.135  0.00  0.00     0.147 A 
ATOM      8  F   UNL d   1     -27.684  20.738  21.370  0.00  0.00    -0.204 F 
ENDROOT
BRANCH   1   9
ATOM      9  N   UNL d   1     -28.744  21.570  23.785  0.00  0.00    -0.318 N 
ATOM     10  C   UNL d   1     -29.870  22.188  23.377  0.00  0.00     0.255 C 
ATOM     11  O   UNL d   1     -29.799  23.201  22.707  0.00  0.00    -0.268 OA
ATOM     12  H   UNL d   1     -28.799  20.805  24.379  0.00  0.00     0.169 HD
BRANCH  10  13
ATOM     13  C   UNL d   1     -31.189  21.637  23.743  0.00  0.00     0.048 C 
ATOM     14  C   UNL d   1     -31.504  21.042  24.910  0.00  0.00     0.052 C 
ATOM     15  C   UNL d   1     -32.959  20.636  24.844  0.00  0.00     0.214 C 
ATOM     16  O   UNL d   1     -33.310  20.656  23.448  0.00  0.00    -0.382 OA
ATOM     17  C   UNL d   1     -32.427  21.637  22.874  0.00  0.00     0.213 C 
BRANCH  14  18
ATOM     18  C   UNL d   1     -30.593  20.828  26.050  0.00  0.00     0.174 C 
ATOM     19  O   UNL d   1     -30.116  21.780  26.632  0.00  0.00    -0.646 OA
BRANCH  18  20
ATOM     20  O   UNL d   1     -30.291  19.575  26.444  0.00  0.00    -0.773 OA
ATOM     21  H   UNL d   1     -29.430  19.227  26.175  0.00  0.00     0.167 HD
ENDBRANCH  18  20
ENDBRANCH  14  18
ENDBRANCH  10  13
ENDBRANCH   1   9
BRANCH   5  22
ATOM     22  C   UNL d   1     -23.699  23.435  22.039  0.00  0.00    -0.023 A 
ATOM     23  C   UNL d   1     -22.665  23.613  22.955  0.00  0.00     0.049 A 
ATOM     24  C   UNL d   1     -21.430  24.065  22.520  0.00  0.00     0.079 A 
ATOM     25  C   UNL d   1     -21.229  24.350  21.176  0.00  0.00     0.037 A 
ATOM     26  C   UNL d   1     -22.256  24.179  20.268  0.00  0.00     0.004 A 
ATOM     27  C   UNL d   1     -23.488  23.724  20.691  0.00  0.00     0.012 A 
BRANCH  24  28
ATOM     28  O   UNL d   1     -20.417  24.236  23.411  0.00  0.00    -0.255 OA
BRANCH  28  29
ATOM     29  C   UNL d   1     -20.093  25.580  23.773  0.00  0.00     0.530 C 
ATOM     30  F   UNL d   1     -21.212  26.397  23.583  0.00  0.00    -0.144 F 
ATOM     31  F   UNL d   1     -19.709  25.621  25.118  0.00  0.00    -0.144 F 
ATOM     32  F   UNL d   1     -19.040  26.038  22.974  0.00  0.00    -0.144 F 
ENDBRANCH  28  29
ENDBRANCH  24  28
ENDBRANCH   5  22
TORSDOF 7
ENDMDL
