MODEL 1
REMARK VINA RESULT:      -9.6      0.000      0.000
REMARK  6 active torsions:
REMARK  status: ('A' for Active; 'I' for Inactive)
REMARK    1  A    between atoms: C_2  and  O_3 
REMARK    2  A    between atoms: C_2  and  C_32 
REMARK    3  A    between atoms: O_3  and  C_4 
REMARK    4  A    between atoms: C_6  and  N_7 
REMARK    5  A    between atoms: C_20  and  C_21 
REMARK       I    between atoms: C_21  and  N_23 
REMARK    6  A    between atoms: N_23  and  C_24 
ROOT
ATOM      1  C   UNL d   1     -20.572  24.885  24.050  0.00  0.00     0.087 A 
ATOM      2  C   UNL d   1     -21.852  24.366  23.951  0.00  0.00     0.073 A 
ATOM      3  C   UNL d   1     -22.349  23.976  22.716  0.00  0.00     0.104 A 
ATOM      4  C   UNL d   1     -21.561  24.094  21.571  0.00  0.00     0.146 A 
ATOM      5  F   UNL d   1     -22.050  23.708  20.373  0.00  0.00    -0.204 F 
ATOM      6  C   UNL d   1     -20.285  24.604  21.661  0.00  0.00     0.064 A 
ATOM      7  C   UNL d   1     -19.778  25.006  22.901  0.00  0.00     0.068 A 
ENDROOT
BRANCH   7   8
ATOM      8  C   UNL d   1     -18.413  25.551  23.000  0.00  0.00     0.254 C 
ATOM      9  O   UNL d   1     -17.488  24.976  22.461  0.00  0.00    -0.268 OA
ATOM     10  N   UNL d   1     -18.189  26.688  23.690  0.00  0.00    -0.352 N 
ATOM     11  H   UNL d   1     -18.927  27.147  24.120  0.00  0.00     0.163 HD
BRANCH  10  12
ATOM     12  C   UNL d   1     -16.832  27.230  23.788  0.00  0.00     0.085 C 
ATOM     13  C   UNL d   1     -16.510  28.029  22.523  0.00  0.00     0.031 C 
ATOM     14  C   UNL d   1     -15.092  28.596  22.627  0.00  0.00     0.081 C 
ATOM     15  C   UNL d   1     -14.997  29.512  23.848  0.00  0.00     0.243 C 
ATOM     16  C   UNL d   1     -15.319  28.714  25.112  0.00  0.00     0.081 C 
ATOM     17  F   UNL d   1     -13.700  30.030  23.942  0.00  0.00    -0.206 F 
ATOM     18  F   UNL d   1     -15.910  30.563  23.715  0.00  0.00    -0.206 F 
ATOM     19  C   UNL d   1     -16.736  28.146  25.010  0.00  0.00     0.031 C 
ENDBRANCH  10  12
ENDBRANCH   7   8
BRANCH   1  20
ATOM     20  O   UNL d   1     -20.086  25.272  25.257  0.00  0.00    -0.345 OA
BRANCH  20  21
ATOM     21  C   UNL d   1     -20.399  26.599  25.686  0.00  0.00     0.129 C 
ATOM     22  C   UNL d   1     -21.802  26.974  25.204  0.00  0.00     0.040 C 
BRANCH  21  23
ATOM     23  C   UNL d   1     -20.351  26.666  27.215  0.00  0.00     0.015 C 
ATOM     24  C   UNL d   1     -18.917  26.418  27.690  0.00  0.00     0.007 C 
ATOM     25  C   UNL d   1     -18.869  26.486  29.218  0.00  0.00     0.000 C 
ATOM     26  C   UNL d   1     -19.328  27.869  29.683  0.00  0.00     0.000 C 
ATOM     27  C   UNL d   1     -20.761  28.117  29.206  0.00  0.00     0.000 C 
ATOM     28  C   UNL d   1     -20.810  28.050  27.679  0.00  0.00     0.007 C 
ENDBRANCH  21  23
ENDBRANCH  20  21
ENDBRANCH   1  20
BRANCH   3  29
ATOM     29  N   UNL d   1     -23.642  23.458  22.618  0.00  0.00    -0.178 N 
ATOM     30  C   UNL d   1     -24.740  23.921  23.255  0.00  0.00     0.351 A 
ATOM     31  N   UNL d   1     -25.778  23.163  22.868  0.00  0.00    -0.284 N 
ATOM     32  O   UNL d   1     -24.781  24.855  24.036  0.00  0.00    -0.244 OA
ATOM     33  C   UNL d   1     -25.310  22.192  22.007  0.00  0.00     0.131 A 
ATOM     34  C   UNL d   1     -27.188  23.318  23.246  0.00  0.00     0.135 C 
ATOM     35  N   UNL d   1     -24.042  22.363  21.838  0.00  0.00    -0.149 NA
ATOM     36  C   UNL d   1     -26.181  21.117  21.401  0.00  0.00     0.081 C 
ATOM     37  C   UNL d   1     -27.643  21.568  21.517  0.00  0.00     0.009 C 
ATOM     38  C   UNL d   1     -27.920  22.002  22.960  0.00  0.00     0.021 C 
ENDBRANCH   3  29
TORSDOF 6
ENDMDL
