MODEL 1
REMARK VINA RESULT:      -9.4      0.000      0.000
REMARK  6 active torsions:
REMARK  status: ('A' for Active; 'I' for Inactive)
REMARK    1  A    between atoms: C_2  and  O_3 
REMARK    2  A    between atoms: O_3  and  C_4 
REMARK    3  A    between atoms: C_4  and  C_6 
REMARK    4  A    between atoms: C_6  and  C_9 
REMARK    5  A    between atoms: N_10  and  C_11 
REMARK    6  A    between atoms: C_15  and  C_16 
ROOT
ATOM      1  C   UNL d   1     -30.972  22.288  24.115  0.00  0.00     0.232 C 
ATOM      2  C   UNL d   1     -32.047  21.888  23.193  0.00  0.00     0.079 C 
ATOM      3  N   UNL d   1     -32.878  21.579  22.482  0.00  0.00    -0.196 NA
ENDROOT
BRANCH   1   4
ATOM      4  C   UNL d   1     -30.989  21.393  25.328  0.00  0.00     0.281 C 
ATOM      5  O   UNL d   1     -31.003  21.875  26.436  0.00  0.00    -0.263 OA
BRANCH   4   6
ATOM      6  O   UNL d   1     -30.988  20.058  25.176  0.00  0.00    -0.321 OA
BRANCH   6   7
ATOM      7  C   UNL d   1     -32.026  19.316  25.868  0.00  0.00     0.174 C 
ATOM      8  C   UNL d   1     -31.404  18.112  26.577  0.00  0.00     0.034 C 
ENDBRANCH   6   7
ENDBRANCH   4   6
ENDBRANCH   1   4
BRANCH   1   9
ATOM      9  C   UNL d   1     -29.641  22.163  23.419  0.00  0.00     0.119 C 
ATOM     10  N   UNL d   1     -28.592  22.713  23.931  0.00  0.00    -0.263 NA
BRANCH  10  11
ATOM     11  C   UNL d   1     -27.378  22.601  23.296  0.00  0.00     0.057 A 
ATOM     12  C   UNL d   1     -26.336  23.463  23.626  0.00  0.00     0.043 A 
ATOM     13  C   UNL d   1     -25.110  23.342  22.979  0.00  0.00    -0.024 A 
ATOM     14  C   UNL d   1     -24.932  22.360  22.005  0.00  0.00     0.012 A 
ATOM     15  C   UNL d   1     -25.969  21.507  21.683  0.00  0.00     0.003 A 
ATOM     16  C   UNL d   1     -27.186  21.618  22.324  0.00  0.00     0.031 A 
BRANCH  13  17
ATOM     17  C   UNL d   1     -23.994  24.259  23.323  0.00  0.00    -0.026 A 
ATOM     18  C   UNL d   1     -22.708  23.756  23.508  0.00  0.00     0.012 A 
ATOM     19  C   UNL d   1     -21.675  24.612  23.829  0.00  0.00     0.001 A 
ATOM     20  C   UNL d   1     -21.913  25.969  23.966  0.00  0.00     0.000 A 
ATOM     21  C   UNL d   1     -23.189  26.473  23.784  0.00  0.00     0.001 A 
ATOM     22  C   UNL d   1     -24.229  25.625  23.458  0.00  0.00     0.012 A 
ENDBRANCH  13  17
ENDBRANCH  10  11
ENDBRANCH   1   9
TORSDOF 6
ENDMDL
