MODEL 1
REMARK VINA RESULT:      -8.9      0.000      0.000
REMARK  7 active torsions:
REMARK  status: ('A' for Active; 'I' for Inactive)
REMARK    1  A    between atoms: C_2  and  N_3 
REMARK    2  A    between atoms: C_4  and  C_5 
REMARK    3  A    between atoms: C_5  and  O_6 
REMARK    4  A    between atoms: N_8  and  C_9 
REMARK    5  A    between atoms: C_12  and  C_13 
REMARK    6  A    between atoms: N_17  and  C_18 
REMARK    7  A    between atoms: C_23  and  C_24 
ROOT
ATOM      1  C   UNL d   1     -28.668  22.206  22.175  0.00  0.00     0.103 A 
ATOM      2  C   UNL d   1     -27.991  23.124  22.959  0.00  0.00     0.048 A 
ATOM      3  C   UNL d   1     -26.608  23.245  22.830  0.00  0.00    -0.010 A 
ATOM      4  C   UNL d   1     -25.836  24.194  23.634  0.00  0.00    -0.027 A 
ATOM      5  C   UNL d   1     -24.507  24.273  23.466  0.00  0.00     0.109 A 
ATOM      6  N   UNL d   1     -23.837  23.494  22.563  0.00  0.00    -0.288 N 
ATOM      7  C   UNL d   1     -24.466  22.595  21.780  0.00  0.00     0.263 A 
ATOM      8  O   UNL d   1     -23.834  21.920  20.988  0.00  0.00    -0.267 OA
ATOM      9  C   UNL d   1     -25.918  22.438  21.894  0.00  0.00     0.046 A 
ATOM     10  C   UNL d   1     -26.625  21.523  21.110  0.00  0.00     0.062 A 
ATOM     11  C   UNL d   1     -27.979  21.413  21.253  0.00  0.00     0.146 A 
ATOM     12  F   UNL d   1     -28.660  20.526  20.494  0.00  0.00    -0.204 F 
ENDROOT
BRANCH   1  13
ATOM     13  N   UNL d   1     -30.054  22.074  22.302  0.00  0.00    -0.178 N 
ATOM     14  N   UNL d   1     -30.995  22.160  21.267  0.00  0.00    -0.147 NA
ATOM     15  C   UNL d   1     -32.171  21.978  21.775  0.00  0.00     0.154 A 
ATOM     16  N   UNL d   1     -32.044  21.782  23.128  0.00  0.00    -0.283 N 
ATOM     17  C   UNL d   1     -30.734  21.839  23.444  0.00  0.00     0.351 A 
ATOM     18  O   UNL d   1     -30.253  21.703  24.554  0.00  0.00    -0.244 OA
BRANCH  15  19
ATOM     19  C   UNL d   1     -33.469  21.986  21.009  0.00  0.00     0.244 C 
BRANCH  19  20
ATOM     20  O   UNL d   1     -33.878  20.641  20.751  0.00  0.00    -0.393 OA
ATOM     21  H   UNL d   1     -34.182  20.165  21.535  0.00  0.00     0.209 HD
ENDBRANCH  19  20
ENDBRANCH  15  19
BRANCH  16  22
ATOM     22  C   UNL d   1     -33.142  21.544  24.068  0.00  0.00     0.131 C 
ATOM     23  C   UNL d   1     -33.304  20.039  24.293  0.00  0.00     0.027 C 
ENDBRANCH  16  22
ENDBRANCH   1  13
BRANCH   4  24
ATOM     24  C   UNL d   1     -26.527  25.075  24.643  0.00  0.00     0.013 C 
ATOM     25  C   UNL d   1     -26.916  24.241  25.865  0.00  0.00     0.015 C 
ATOM     26  C   UNL d   1     -25.581  26.198  25.073  0.00  0.00     0.015 C 
ENDBRANCH   4  24
BRANCH   6  27
ATOM     27  C   UNL d   1     -22.449  23.637  22.445  0.00  0.00     0.057 A 
ATOM     28  C   UNL d   1     -21.913  24.437  21.445  0.00  0.00     0.075 A 
ATOM     29  C   UNL d   1     -20.544  24.576  21.333  0.00  0.00     0.018 A 
ATOM     30  C   UNL d   1     -19.706  23.920  22.215  0.00  0.00     0.001 A 
ATOM     31  C   UNL d   1     -20.236  23.121  23.213  0.00  0.00     0.002 A 
ATOM     32  C   UNL d   1     -21.605  22.983  23.334  0.00  0.00     0.031 A 
BRANCH  28  33
ATOM     33  C   UNL d   1     -22.825  25.154  20.484  0.00  0.00     0.419 C 
ATOM     34  F   UNL d   1     -22.061  25.770  19.487  0.00  0.00    -0.166 F 
ATOM     35  F   UNL d   1     -23.702  24.234  19.897  0.00  0.00    -0.166 F 
ATOM     36  F   UNL d   1     -23.561  26.125  21.173  0.00  0.00    -0.166 F 
ENDBRANCH  28  33
ENDBRANCH   6  27
TORSDOF 7
ENDMDL
