MODEL 1
REMARK VINA RESULT:      -7.9      0.000      0.000
REMARK  7 active torsions:
REMARK  status: ('A' for Active; 'I' for Inactive)
REMARK    1  A    between atoms: C_5  and  N_6 
REMARK       I    between atoms: N_6  and  C_7 
REMARK    2  A    between atoms: C_7  and  C_9 
REMARK    3  A    between atoms: C_13  and  N_14 
REMARK    4  A    between atoms: C_25  and  O_26 
REMARK    5  A    between atoms: O_26  and  C_27 
REMARK    6  A    between atoms: C_27  and  C_29 
REMARK    7  A    between atoms: C_29  and  N_30 
ROOT
ATOM      1  C   UNL d   1     -23.772  25.040  23.852  0.00  0.00     0.068 A 
ATOM      2  C   UNL d   1     -24.782  25.595  24.645  0.00  0.00     0.064 A 
ATOM      3  C   UNL d   1     -26.011  24.980  24.723  0.00  0.00     0.146 A 
ATOM      4  F   UNL d   1     -26.986  25.517  25.490  0.00  0.00    -0.204 F 
ATOM      5  C   UNL d   1     -26.253  23.803  24.014  0.00  0.00     0.104 A 
ATOM      6  C   UNL d   1     -25.256  23.246  23.225  0.00  0.00     0.073 A 
ATOM      7  C   UNL d   1     -24.019  23.859  23.134  0.00  0.00     0.087 A 
ENDROOT
BRANCH   1   8
ATOM      8  C   UNL d   1     -22.456  25.695  23.765  0.00  0.00     0.260 C 
ATOM      9  N   UNL d   1     -21.368  25.095  24.288  0.00  0.00    -0.306 N 
ATOM     10  H   UNL d   1     -21.453  24.231  24.721  0.00  0.00     0.170 HD
ATOM     11  O   UNL d   1     -22.350  26.778  23.221  0.00  0.00    -0.267 OA
BRANCH   9  12
ATOM     12  C   UNL d   1     -20.124  25.714  24.206  0.00  0.00     0.154 A 
ATOM     13  N   UNL d   1     -19.365  25.542  23.132  0.00  0.00    -0.239 NA
ATOM     14  C   UNL d   1     -18.184  26.132  23.058  0.00  0.00     0.145 A 
ATOM     15  C   UNL d   1     -17.739  26.927  24.099  0.00  0.00     0.048 A 
ATOM     16  C   UNL d   1     -16.393  27.598  24.009  0.00  0.00     0.072 C 
ATOM     17  N   UNL d   1     -18.492  27.101  25.171  0.00  0.00    -0.253 NA
ATOM     18  C   UNL d   1     -19.672  26.515  25.252  0.00  0.00     0.077 A 
ATOM     19  C   UNL d   1     -20.530  26.713  26.475  0.00  0.00     0.074 C 
ENDBRANCH   9  12
ENDBRANCH   1   8
BRANCH   7  20
ATOM     20  O   UNL d   1     -23.046  23.318  22.359  0.00  0.00    -0.343 OA
BRANCH  20  21
ATOM     21  C   UNL d   1     -23.007  23.723  20.989  0.00  0.00     0.153 C 
ATOM     22  C   UNL d   1     -21.604  24.231  20.649  0.00  0.00     0.042 C 
BRANCH  21  23
ATOM     23  C   UNL d   1     -23.348  22.531  20.094  0.00  0.00     0.303 C 
BRANCH  23  24
ATOM     24  N   UNL d   1     -24.718  22.680  19.583  0.00  0.00     0.082 N 
ATOM     25  C   UNL d   1     -24.778  22.386  18.145  0.00  0.00     0.309 C 
ATOM     26  C   UNL d   1     -25.655  21.833  20.333  0.00  0.00     0.309 C 
ENDBRANCH  23  24
ENDBRANCH  21  23
ENDBRANCH  20  21
ENDBRANCH   7  20
BRANCH   5  27
ATOM     27  N   UNL d   1     -27.502  23.185  24.098  0.00  0.00    -0.178 N 
ATOM     28  C   UNL d   1     -27.970  22.466  25.142  0.00  0.00     0.351 A 
ATOM     29  N   UNL d   1     -29.216  22.073  24.831  0.00  0.00    -0.284 N 
ATOM     30  O   UNL d   1     -27.373  22.220  26.175  0.00  0.00    -0.244 OA
ATOM     31  C   UNL d   1     -29.509  22.523  23.560  0.00  0.00     0.131 A 
ATOM     32  C   UNL d   1     -30.150  21.317  25.673  0.00  0.00     0.135 C 
ATOM     33  N   UNL d   1     -28.505  23.199  23.116  0.00  0.00    -0.149 NA
ATOM     34  C   UNL d   1     -30.809  22.231  22.845  0.00  0.00     0.081 C 
ATOM     35  C   UNL d   1     -31.842  21.803  23.895  0.00  0.00     0.009 C 
ATOM     36  C   UNL d   1     -31.234  20.707  24.777  0.00  0.00     0.021 C 
ENDBRANCH   5  27
TORSDOF 7
ENDMDL
