MODEL 1
REMARK VINA RESULT:      -9.2      0.000      0.000
REMARK  9 active torsions:
REMARK  status: ('A' for Active; 'I' for Inactive)
REMARK    1  A    between atoms: O_2  and  C_3 
REMARK    2  A    between atoms: C_3  and  C_5 
REMARK    3  A    between atoms: C_9  and  C_10 
REMARK    4  A    between atoms: C_10  and  C_11 
REMARK    5  A    between atoms: C_11  and  C_12 
REMARK    6  A    between atoms: C_12  and  C_13 
REMARK    7  A    between atoms: C_13  and  C_14 
REMARK    8  A    between atoms: CA_15  and  C_16 
REMARK    9  A    between atoms: C_16  and  OXT_18 
ROOT
ATOM      1  C   UNL d   1     -29.558  21.873  23.744  0.00  0.00     0.044 A 
ATOM      2  CA  UNL d   1     -30.593  21.593  24.579  0.00  0.00     0.122 A 
ATOM      3  N   UNL d   1     -31.886  21.739  24.127  0.00  0.00    -0.302 N 
ATOM      4  H   UNL d   1     -32.626  21.542  24.723  0.00  0.00     0.171 HD
ATOM      5  C   UNL d   1     -32.143  22.144  22.871  0.00  0.00     0.327 A 
ATOM      6  O   UNL d   1     -33.297  22.255  22.510  0.00  0.00    -0.247 OA
ATOM      7  N   UNL d   1     -31.155  22.429  22.004  0.00  0.00    -0.275 N 
ATOM      8  H   UNL d   1     -31.372  22.719  21.104  0.00  0.00     0.173 HD
ATOM      9  C   UNL d   1     -29.863  22.314  22.378  0.00  0.00     0.258 A 
ATOM     10  O   UNL d   1     -28.968  22.572  21.596  0.00  0.00    -0.267 OA
ENDROOT
BRANCH   1  11
ATOM     11  C   UNL d   1     -28.132  21.730  24.208  0.00  0.00     0.047 C 
BRANCH  11  12
ATOM     12  C   UNL d   1     -27.640  23.067  24.764  0.00  0.00     0.005 C 
BRANCH  12  13
ATOM     13  C   UNL d   1     -26.683  23.716  23.761  0.00  0.00     0.005 C 
BRANCH  13  14
ATOM     14  C   UNL d   1     -25.338  22.987  23.793  0.00  0.00     0.038 C 
BRANCH  14  15
ATOM     15  C   UNL d   1     -24.739  22.979  22.410  0.00  0.00    -0.057 A 
ATOM     16  C   UNL d   1     -25.193  22.075  21.466  0.00  0.00     0.007 A 
ATOM     17  C   UNL d   1     -24.651  22.064  20.192  0.00  0.00     0.002 A 
ATOM     18  C   UNL d   1     -23.648  22.950  19.859  0.00  0.00     0.017 A 
ATOM     19  C   UNL d   1     -23.181  23.861  20.808  0.00  0.00     0.040 A 
ATOM     20  C   UNL d   1     -23.735  23.871  22.089  0.00  0.00     0.024 A 
BRANCH  19  21
ATOM     21  C   UNL d   1     -22.106  24.812  20.458  0.00  0.00     0.292 C 
ATOM     22  O   UNL d   1     -22.086  25.326  19.356  0.00  0.00    -0.259 OA
BRANCH  21  23
ATOM     23  O   UNL d   1     -21.150  25.109  21.357  0.00  0.00    -0.323 OA
ATOM     24  C   UNL d   1     -20.127  24.105  21.588  0.00  0.00     0.213 C 
ENDBRANCH  21  23
ENDBRANCH  19  21
ENDBRANCH  14  15
ENDBRANCH  13  14
ENDBRANCH  12  13
ENDBRANCH  11  12
ENDBRANCH   1  11
BRANCH   2  25
ATOM     25  C   UNL d   1     -30.333  21.138  25.966  0.00  0.00     0.194 C 
ATOM     26  O   UNL d   1     -30.218  21.951  26.859  0.00  0.00    -0.645 OA
BRANCH  25  27
ATOM     27  OXT UNL d   1     -30.223  19.822  26.234  0.00  0.00    -0.772 OA
ATOM     28  HXT UNL d   1     -31.044  19.340  26.404  0.00  0.00     0.167 HD
ENDBRANCH  25  27
ENDBRANCH   2  25
TORSDOF 9
ENDMDL
