MODEL 1
REMARK VINA RESULT:      -8.2      0.000      0.000
REMARK  7 active torsions:
REMARK  status: ('A' for Active; 'I' for Inactive)
REMARK    1  A    between atoms: C_2  and  N_3 
REMARK    2  A    between atoms: C_4  and  C_5 
REMARK    3  A    between atoms: C_5  and  O_6 
REMARK    4  A    between atoms: N_8  and  C_9 
REMARK    5  A    between atoms: C_12  and  C_13 
REMARK    6  A    between atoms: C_13  and  C_15 
REMARK    7  A    between atoms: N_20  and  C_21 
ROOT
ATOM      1  C   UNL d   1     -21.775  24.516  23.027  0.00  0.00     0.195 A 
ATOM      2  N   UNL d   1     -21.398  25.188  24.101  0.00  0.00    -0.225 NA
ATOM      3  C   UNL d   1     -20.166  25.674  24.210  0.00  0.00     0.083 A 
ATOM      4  C   UNL d   1     -19.732  26.419  25.393  0.00  0.00     0.000 A 
ATOM      5  C   UNL d   1     -18.477  26.890  25.455  0.00  0.00     0.111 A 
ATOM      6  N   UNL d   1     -17.572  26.701  24.448  0.00  0.00    -0.288 N 
ATOM      7  C   UNL d   1     -17.882  26.028  23.323  0.00  0.00     0.264 A 
ATOM      8  O   UNL d   1     -17.050  25.877  22.446  0.00  0.00    -0.267 OA
ATOM      9  C   UNL d   1     -19.230  25.477  23.167  0.00  0.00     0.065 A 
ATOM     10  C   UNL d   1     -19.614  24.769  22.024  0.00  0.00     0.066 A 
ATOM     11  C   UNL d   1     -20.896  24.284  21.965  0.00  0.00     0.165 A 
ATOM     12  F   UNL d   1     -21.309  23.589  20.883  0.00  0.00    -0.202 F 
ENDROOT
BRANCH   1  13
ATOM     13  N   UNL d   1     -23.076  24.025  22.954  0.00  0.00    -0.159 N 
ATOM     14  N   UNL d   1     -23.478  22.826  22.348  0.00  0.00    -0.145 NA
ATOM     15  C   UNL d   1     -24.760  22.714  22.490  0.00  0.00     0.154 A 
ATOM     16  N   UNL d   1     -25.228  23.812  23.170  0.00  0.00    -0.283 N 
ATOM     17  C   UNL d   1     -24.182  24.613  23.455  0.00  0.00     0.352 A 
ATOM     18  O   UNL d   1     -24.228  25.672  24.053  0.00  0.00    -0.244 OA
BRANCH  15  19
ATOM     19  C   UNL d   1     -25.601  21.568  21.990  0.00  0.00     0.244 C 
BRANCH  19  20
ATOM     20  O   UNL d   1     -24.756  20.589  21.380  0.00  0.00    -0.393 OA
ATOM     21  H   UNL d   1     -23.948  20.402  21.878  0.00  0.00     0.209 HD
ENDBRANCH  19  20
ENDBRANCH  15  19
BRANCH  16  22
ATOM     22  C   UNL d   1     -26.626  24.066  23.530  0.00  0.00     0.131 C 
ATOM     23  C   UNL d   1     -26.929  23.420  24.883  0.00  0.00     0.027 C 
ENDBRANCH  16  22
ENDBRANCH   1  13
BRANCH   4  24
ATOM     24  C   UNL d   1     -20.690  26.658  26.532  0.00  0.00     0.126 C 
ATOM     25  C   UNL d   1     -19.944  26.526  27.862  0.00  0.00     0.024 C 
BRANCH  24  26
ATOM     26  C   UNL d   1     -21.281  28.064  26.416  0.00  0.00     0.395 C 
ATOM     27  F   UNL d   1     -20.261  29.011  26.553  0.00  0.00    -0.170 F 
ATOM     28  F   UNL d   1     -21.889  28.211  25.165  0.00  0.00    -0.170 F 
ATOM     29  F   UNL d   1     -22.233  28.254  27.423  0.00  0.00    -0.170 F 
ENDBRANCH  24  26
ENDBRANCH   4  24
BRANCH   6  30
ATOM     30  C   UNL d   1     -16.282  27.224  24.590  0.00  0.00     0.048 A 
ATOM     31  C   UNL d   1     -15.286  26.466  25.193  0.00  0.00    -0.035 A 
ATOM     32  C   UNL d   1     -14.013  26.986  25.331  0.00  0.00     0.009 A 
ATOM     33  C   UNL d   1     -15.593  25.079  25.694  0.00  0.00     0.050 C 
ATOM     34  C   UNL d   1     -13.731  28.258  24.871  0.00  0.00     0.001 A 
ATOM     35  C   UNL d   1     -14.720  29.016  24.270  0.00  0.00     0.002 A 
ATOM     36  C   UNL d   1     -15.993  28.501  24.125  0.00  0.00     0.030 A 
ENDBRANCH   6  30
TORSDOF 7
ENDMDL
