MODEL 1
REMARK VINA RESULT:      -8.6      0.000      0.000
REMARK  7 active torsions:
REMARK  status: ('A' for Active; 'I' for Inactive)
REMARK    1  A    between atoms: O_2  and  C_3 
REMARK    2  A    between atoms: C_5  and  C_6 
REMARK    3  A    between atoms: C_6  and  C_7 
REMARK    4  A    between atoms: C_7  and  C_8 
REMARK    5  A    between atoms: CA_9  and  C_10 
REMARK    6  A    between atoms: C_10  and  OXT_12 
REMARK    7  A    between atoms: C_22  and  O_23 
ROOT
ATOM      1  C   UNL d   1     -29.683  21.860  23.720  0.00  0.00     0.044 A 
ATOM      2  CA  UNL d   1     -30.613  21.577  24.671  0.00  0.00     0.122 A 
ATOM      3  N   UNL d   1     -31.951  21.705  24.368  0.00  0.00    -0.302 N 
ATOM      4  H   UNL d   1     -32.614  21.506  25.047  0.00  0.00     0.171 HD
ATOM      5  C   UNL d   1     -32.354  22.099  23.148  0.00  0.00     0.327 A 
ATOM      6  O   UNL d   1     -33.544  22.199  22.922  0.00  0.00    -0.247 OA
ATOM      7  N   UNL d   1     -31.476  22.386  22.172  0.00  0.00    -0.275 N 
ATOM      8  H   UNL d   1     -31.799  22.669  21.302  0.00  0.00     0.173 HD
ATOM      9  C   UNL d   1     -30.149  22.284  22.393  0.00  0.00     0.258 A 
ATOM     10  O   UNL d   1     -29.352  22.542  21.511  0.00  0.00    -0.267 OA
ENDROOT
BRANCH   1  11
ATOM     11  C   UNL d   1     -28.212  21.736  24.018  0.00  0.00     0.051 C 
BRANCH  11  12
ATOM     12  C   UNL d   1     -27.610  23.131  24.205  0.00  0.00     0.043 C 
BRANCH  12  13
ATOM     13  C   UNL d   1     -26.302  23.217  23.462  0.00  0.00    -0.052 A 
ATOM     14  C   UNL d   1     -26.031  22.329  22.437  0.00  0.00     0.044 A 
ATOM     15  C   UNL d   1     -24.828  22.406  21.752  0.00  0.00     0.071 A 
ATOM     16  C   UNL d   1     -23.896  23.375  22.094  0.00  0.00     0.073 A 
ATOM     17  C   UNL d   1     -24.171  24.264  23.121  0.00  0.00     0.071 A 
ATOM     18  C   UNL d   1     -25.379  24.187  23.801  0.00  0.00     0.044 A 
BRANCH  15  19
ATOM     19  O   UNL d   1     -24.561  21.532  20.745  0.00  0.00    -0.356 OA
ATOM     20  C   UNL d   1     -24.193  22.090  19.482  0.00  0.00     0.210 C 
ENDBRANCH  15  19
BRANCH  17  21
ATOM     21  O   UNL d   1     -23.260  25.216  23.458  0.00  0.00    -0.356 OA
ATOM     22  C   UNL d   1     -23.698  26.575  23.422  0.00  0.00     0.210 C 
ENDBRANCH  17  21
ENDBRANCH  12  13
ENDBRANCH  11  12
ENDBRANCH   1  11
BRANCH   2  23
ATOM     23  C   UNL d   1     -30.190  21.141  26.023  0.00  0.00     0.194 C 
ATOM     24  O   UNL d   1     -29.853  21.965  26.849  0.00  0.00    -0.645 OA
BRANCH  23  25
ATOM     25  OXT UNL d   1     -30.179  19.831  26.335  0.00  0.00    -0.772 OA
ATOM     26  HXT UNL d   1     -30.903  19.291  25.990  0.00  0.00     0.167 HD
ENDBRANCH  23  25
ENDBRANCH   2  23
TORSDOF 7
ENDMDL
