MODEL 1
REMARK VINA RESULT:      -9.3      0.000      0.000
REMARK  4 active torsions:
REMARK  status: ('A' for Active; 'I' for Inactive)
REMARK    1  A    between atoms: C_2  and  C_4 
REMARK    2  A    between atoms: C_6  and  N_7 
REMARK    3  A    between atoms: N_7  and  C_8 
REMARK    4  A    between atoms: C_13  and  C_14 
ROOT
ATOM      1  C   UNL d   1     -29.323  22.466  23.336  0.00  0.00     0.035 A 
ATOM      2  C   UNL d   1     -29.296  22.707  21.968  0.00  0.00     0.031 A 
ATOM      3  C   UNL d   1     -30.433  22.505  21.211  0.00  0.00     0.027 A 
ATOM      4  C   UNL d   1     -31.598  22.064  21.813  0.00  0.00     0.049 A 
ATOM      5 CL   UNL d   1     -33.026  21.813  20.857  0.00  0.00    -0.083 Cl
ATOM      6  C   UNL d   1     -31.629  21.827  23.175  0.00  0.00     0.071 A 
ATOM      7  C   UNL d   1     -30.493  22.021  23.938  0.00  0.00     0.047 A 
ENDROOT
BRANCH   1   8
ATOM      8  N   UNL d   1     -28.174  22.667  24.106  0.00  0.00    -0.335 N 
ATOM      9  H   UNL d   1     -28.241  22.734  25.071  0.00  0.00     0.168 HD
BRANCH   8  10
ATOM     10  C   UNL d   1     -26.944  22.772  23.493  0.00  0.00     0.172 A 
ATOM     11  S   UNL d   1     -25.779  23.972  23.847  0.00  0.00    -0.046 SA
ATOM     12  C   UNL d   1     -24.689  23.287  22.643  0.00  0.00     0.078 A 
ATOM     13  C   UNL d   1     -25.316  22.203  22.080  0.00  0.00     0.054 A 
ATOM     14  N   UNL d   1     -26.506  21.967  22.565  0.00  0.00    -0.228 NA
ATOM     15  C   UNL d   1     -24.688  21.358  21.002  0.00  0.00     0.072 C 
BRANCH  12  16
ATOM     16  C   UNL d   1     -23.407  23.765  22.317  0.00  0.00     0.164 C 
ATOM     17  C   UNL d   1     -22.206  23.289  23.094  0.00  0.00     0.097 C 
ATOM     18  O   UNL d   1     -23.267  24.562  21.411  0.00  0.00    -0.292 OA
ENDBRANCH  12  16
ENDBRANCH   8  10
ENDBRANCH   1   8
BRANCH   6  19
ATOM     19  C   UNL d   1     -32.901  21.351  23.828  0.00  0.00     0.419 C 
ATOM     20  F   UNL d   1     -33.239  20.089  23.328  0.00  0.00    -0.166 F 
ATOM     21  F   UNL d   1     -32.712  21.268  25.212  0.00  0.00    -0.166 F 
ATOM     22  F   UNL d   1     -33.933  22.254  23.552  0.00  0.00    -0.166 F 
ENDBRANCH   6  19
TORSDOF 4
ENDMDL
