MODEL 1
REMARK VINA RESULT:      -8.5      0.000      0.000
REMARK  5 active torsions:
REMARK  status: ('A' for Active; 'I' for Inactive)
REMARK    1  A    between atoms: C_2  and  C_5 
REMARK    2  A    between atoms: C_8  and  N_9 
REMARK    3  A    between atoms: N_9  and  C_10 
REMARK    4  A    between atoms: C_10  and  C_12 
REMARK    5  A    between atoms: C_16  and  C_17 
ROOT
ATOM      1  N   UNL d   1     -22.746  22.699  22.449  0.00  0.00    -0.346 N 
ATOM      2  H   UNL d   1     -22.176  22.028  22.856  0.00  0.00     0.167 HD
ENDROOT
BRANCH   1   3
ATOM      3  C   UNL d   1     -24.136  22.551  22.484  0.00  0.00     0.033 A 
ATOM      4  C   UNL d   1     -24.892  23.296  23.379  0.00  0.00     0.030 A 
ATOM      5  C   UNL d   1     -26.265  23.150  23.411  0.00  0.00     0.018 A 
ATOM      6  C   UNL d   1     -26.886  22.259  22.556  0.00  0.00     0.048 A 
ATOM      7  C   UNL d   1     -26.137  21.519  21.660  0.00  0.00     0.018 A 
ATOM      8  C   UNL d   1     -24.763  21.661  21.623  0.00  0.00     0.030 A 
BRANCH   6   9
ATOM      9  C   UNL d   1     -28.383  22.096  22.598  0.00  0.00     0.417 C 
ATOM     10  F   UNL d   1     -28.988  23.357  22.667  0.00  0.00    -0.166 F 
ATOM     11  F   UNL d   1     -28.813  21.436  21.442  0.00  0.00    -0.166 F 
ATOM     12  F   UNL d   1     -28.740  21.346  23.724  0.00  0.00    -0.166 F 
ENDBRANCH   6   9
ENDBRANCH   1   3
BRANCH   1  13
ATOM     13  C   UNL d   1     -22.197  23.774  21.849  0.00  0.00     0.115 C 
ATOM     14  S   UNL d   1     -22.897  24.410  20.423  0.00  0.00    -0.059 SA
BRANCH  13  15
ATOM     15  C   UNL d   1     -20.995  24.403  22.423  0.00  0.00     0.054 A 
ATOM     16  C   UNL d   1     -20.907  25.280  23.476  0.00  0.00     0.098 A 
ATOM     17  O   UNL d   1     -19.609  25.564  23.622  0.00  0.00    -0.217 OA
ATOM     18  N   UNL d   1     -18.909  25.002  22.817  0.00  0.00    -0.140 NA
ATOM     19  C   UNL d   1     -19.592  24.250  22.006  0.00  0.00     0.163 A 
BRANCH  16  20
ATOM     20  C   UNL d   1     -22.047  25.813  24.305  0.00  0.00     0.046 A 
ATOM     21  C   UNL d   1     -22.011  27.295  24.687  0.00  0.00     0.012 A 
ATOM     22  C   UNL d   1     -23.007  26.799  23.635  0.00  0.00     0.012 A 
ENDBRANCH  16  20
ENDBRANCH  13  15
ENDBRANCH   1  13
TORSDOF 5
ENDMDL
