MODEL 1
REMARK VINA RESULT:     -11.9      0.000      0.000
REMARK  4 active torsions:
REMARK  status: ('A' for Active; 'I' for Inactive)
REMARK    1  A    between atoms: C_6  and  C_7 
REMARK    2  A    between atoms: C_10  and  C_11 
REMARK    3  A    between atoms: C_13  and  C_14 
REMARK    4  A    between atoms: C_14  and  O_16 
ROOT
ATOM      1  C   UNL d   1     -28.089  22.484  23.278  0.00  0.00    -0.023 A 
ATOM      2  C   UNL d   1     -28.493  21.966  24.508  0.00  0.00     0.033 A 
ATOM      3  C   UNL d   1     -29.820  21.608  24.715  0.00  0.00     0.069 A 
ATOM      4  C   UNL d   1     -30.758  21.769  23.671  0.00  0.00     0.102 A 
ATOM      5  N   UNL d   1     -32.077  21.521  23.565  0.00  0.00    -0.233 NA
ATOM      6  C   UNL d   1     -32.496  21.851  22.375  0.00  0.00     0.101 A 
ATOM      7  C   UNL d   1     -33.918  21.721  21.893  0.00  0.00     0.091 C 
ATOM      8  N   UNL d   1     -31.462  22.327  21.634  0.00  0.00    -0.343 N 
ATOM      9  H   UNL d   1     -31.506  22.638  20.716  0.00  0.00     0.167 HD
ATOM     10  C   UNL d   1     -30.336  22.290  22.436  0.00  0.00     0.064 A 
ATOM     11  C   UNL d   1     -29.010  22.644  22.246  0.00  0.00     0.044 A 
ENDROOT
BRANCH   1  12
ATOM     12  C   UNL d   1     -26.671  22.864  23.068  0.00  0.00    -0.026 A 
ATOM     13  C   UNL d   1     -26.133  23.952  23.753  0.00  0.00     0.013 A 
ATOM     14  C   UNL d   1     -24.816  24.306  23.559  0.00  0.00     0.013 A 
ATOM     15  C   UNL d   1     -24.022  23.575  22.675  0.00  0.00    -0.026 A 
ATOM     16  C   UNL d   1     -24.560  22.486  21.990  0.00  0.00     0.013 A 
ATOM     17  C   UNL d   1     -25.875  22.130  22.189  0.00  0.00     0.013 A 
BRANCH  15  18
ATOM     18  C   UNL d   1     -22.603  23.956  22.465  0.00  0.00    -0.025 A 
ATOM     19  C   UNL d   1     -22.097  24.079  21.173  0.00  0.00     0.012 A 
ATOM     20  C   UNL d   1     -20.776  24.435  20.983  0.00  0.00     0.001 A 
ATOM     21  C   UNL d   1     -19.957  24.669  22.073  0.00  0.00     0.007 A 
ATOM     22  C   UNL d   1     -20.455  24.548  23.358  0.00  0.00    -0.061 A 
ATOM     23  C   UNL d   1     -19.556  24.806  24.540  0.00  0.00     0.048 C 
ATOM     24  C   UNL d   1     -21.774  24.199  23.559  0.00  0.00     0.019 A 
ENDBRANCH  15  18
ENDBRANCH   1  12
BRANCH   3  25
ATOM     25  C   UNL d   1     -30.246  21.061  26.015  0.00  0.00     0.178 C 
ATOM     26  O   UNL d   1     -30.202  21.757  27.010  0.00  0.00    -0.646 OA
BRANCH  25  27
ATOM     27  O   UNL d   1     -30.685  19.790  26.100  0.00  0.00    -0.773 OA
ATOM     28  H   UNL d   1     -31.197  19.451  25.353  0.00  0.00     0.167 HD
ENDBRANCH  25  27
ENDBRANCH   3  25
TORSDOF 4
ENDMDL
