MODEL 1
REMARK VINA RESULT:     -12.0      0.000      0.000
REMARK  4 active torsions:
REMARK  status: ('A' for Active; 'I' for Inactive)
REMARK       I    between atoms: C_2  and  N_3 
REMARK    1  A    between atoms: C_2  and  C_19 
REMARK    2  A    between atoms: N_3  and  C_4 
REMARK    3  A    between atoms: C_9  and  C_10 
REMARK    4  A    between atoms: C_20  and  O_21 
ROOT
ATOM      1  C   UNL d   1     -26.713  22.396  23.065  0.00  0.00     0.119 A 
ATOM      2  C   UNL d   1     -26.109  23.467  23.715  0.00  0.00     0.185 A 
ATOM      3  F   UNL d   1     -26.709  24.031  24.787  0.00  0.00    -0.200 F 
ATOM      4  C   UNL d   1     -24.894  23.952  23.271  0.00  0.00     0.172 A 
ATOM      5  F   UNL d   1     -24.305  24.988  23.907  0.00  0.00    -0.202 F 
ATOM      6  C   UNL d   1     -24.274  23.368  22.163  0.00  0.00     0.065 A 
ATOM      7  C   UNL d   1     -24.887  22.295  21.508  0.00  0.00     0.172 A 
ATOM      8  F   UNL d   1     -24.291  21.728  20.437  0.00  0.00    -0.202 F 
ATOM      9  C   UNL d   1     -26.103  21.816  21.959  0.00  0.00     0.185 A 
ATOM     10  F   UNL d   1     -26.694  20.780  21.327  0.00  0.00    -0.200 F 
ENDROOT
BRANCH   1  11
ATOM     11  N   UNL d   1     -27.942  21.905  23.523  0.00  0.00    -0.317 N 
ATOM     12  C   UNL d   1     -29.093  22.440  23.068  0.00  0.00     0.263 C 
ATOM     13  O   UNL d   1     -29.067  23.285  22.192  0.00  0.00    -0.267 OA
ATOM     14  H   UNL d   1     -27.966  21.180  24.167  0.00  0.00     0.169 HD
BRANCH  12  15
ATOM     15  C   UNL d   1     -30.374  22.004  23.627  0.00  0.00     0.115 A 
ATOM     16  C   UNL d   1     -31.587  21.851  22.927  0.00  0.00     0.078 A 
ATOM     17  N   UNL d   1     -32.518  21.426  23.829  0.00  0.00    -0.242 N 
ATOM     18  C   UNL d   1     -31.942  22.046  21.586  0.00  0.00     0.033 A 
ATOM     19  N   UNL d   1     -31.895  21.325  25.079  0.00  0.00    -0.141 NA
ATOM     20  C   UNL d   1     -33.798  21.188  23.430  0.00  0.00     0.119 A 
ATOM     21  C   UNL d   1     -30.633  21.664  24.971  0.00  0.00     0.200 A 
ATOM     22  C   UNL d   1     -34.166  21.376  22.142  0.00  0.00     0.019 A 
ATOM     23  C   UNL d   1     -33.229  21.808  21.195  0.00  0.00     0.004 A 
BRANCH  21  24
ATOM     24  O   UNL d   1     -29.727  21.682  25.982  0.00  0.00    -0.343 OA
ATOM     25  H   UNL d   1     -28.924  22.181  25.781  0.00  0.00     0.219 HD
ENDBRANCH  21  24
ENDBRANCH  12  15
ENDBRANCH   1  11
BRANCH   6  26
ATOM     26  C   UNL d   1     -22.974  23.882  21.684  0.00  0.00     0.021 A 
ATOM     27  S   UNL d   1     -21.438  23.693  22.519  0.00  0.00    -0.101 SA
ATOM     28  C   UNL d   1     -20.601  24.572  21.246  0.00  0.00     0.050 A 
ATOM     29  C   UNL d   1     -21.473  24.944  20.307  0.00  0.00     0.008 A 
ATOM     30  C   UNL d   1     -22.780  24.564  20.538  0.00  0.00     0.020 A 
ENDBRANCH   6  26
TORSDOF 4
ENDMDL
