MODEL 1
REMARK VINA RESULT:     -12.3      0.000      0.000
REMARK  4 active torsions:
REMARK  status: ('A' for Active; 'I' for Inactive)
REMARK    1  A    between atoms: C_2  and  O_3 
REMARK    2  A    between atoms: C_2  and  C_4 
REMARK    3  A    between atoms: C_11  and  C_12 
REMARK    4  A    between atoms: C_17  and  C_18 
ROOT
ATOM      1  C   UNL d   1     -26.897  22.622  23.217  0.00  0.00     0.093 A 
ATOM      2  C   UNL d   1     -26.254  23.721  23.796  0.00  0.00     0.173 A 
ATOM      3  F   UNL d   1     -26.864  24.421  24.778  0.00  0.00    -0.202 F 
ATOM      4  C   UNL d   1     -24.996  24.091  23.363  0.00  0.00     0.170 A 
ATOM      5  F   UNL d   1     -24.374  25.153  23.921  0.00  0.00    -0.202 F 
ATOM      6  C   UNL d   1     -24.366  23.369  22.348  0.00  0.00     0.059 A 
ATOM      7  C   UNL d   1     -25.008  22.274  21.766  0.00  0.00     0.170 A 
ATOM      8  F   UNL d   1     -24.399  21.578  20.781  0.00  0.00    -0.202 F 
ATOM      9  C   UNL d   1     -26.264  21.898  22.201  0.00  0.00     0.173 A 
ATOM     10  F   UNL d   1     -26.883  20.836  21.642  0.00  0.00    -0.202 F 
ENDROOT
BRANCH   1  11
ATOM     11  C   UNL d   1     -28.241  22.225  23.680  0.00  0.00     0.145 A 
ATOM     12  N   UNL d   1     -28.531  21.721  24.919  0.00  0.00    -0.338 N 
ATOM     13  C   UNL d   1     -29.893  21.481  24.950  0.00  0.00     0.064 A 
ATOM     14  H   UNL d   1     -27.901  21.561  25.638  0.00  0.00     0.167 HD
ATOM     15  C   UNL d   1     -30.757  20.982  25.910  0.00  0.00     0.032 A 
ATOM     16  C   UNL d   1     -30.386  21.863  23.689  0.00  0.00     0.102 A 
ATOM     17  C   UNL d   1     -32.107  20.856  25.635  0.00  0.00     0.003 A 
ATOM     18  C   UNL d   1     -32.612  21.226  24.404  0.00  0.00     0.021 A 
ATOM     19  C   UNL d   1     -31.766  21.731  23.418  0.00  0.00     0.068 A 
ATOM     20  N   UNL d   1     -29.342  22.309  22.968  0.00  0.00    -0.227 NA
BRANCH  19  21
ATOM     21  C   UNL d   1     -32.306  22.124  22.106  0.00  0.00     0.178 C 
ATOM     22  O   UNL d   1     -33.490  22.368  21.986  0.00  0.00    -0.646 OA
BRANCH  21  23
ATOM     23  O   UNL d   1     -31.487  22.215  21.040  0.00  0.00    -0.773 OA
ATOM     24  H   UNL d   1     -31.196  21.385  20.638  0.00  0.00     0.167 HD
ENDBRANCH  21  23
ENDBRANCH  19  21
ENDBRANCH   1  11
BRANCH   6  25
ATOM     25  C   UNL d   1     -23.015  23.767  21.884  0.00  0.00    -0.002 A 
ATOM     26  C   UNL d   1     -21.886  23.443  22.634  0.00  0.00     0.128 A 
ATOM     27  N   UNL d   1     -20.685  23.800  22.225  0.00  0.00    -0.272 NA
ATOM     28  C   UNL d   1     -20.502  24.471  21.105  0.00  0.00     0.116 A 
ATOM     29  C   UNL d   1     -21.572  24.830  20.306  0.00  0.00     0.020 A 
ATOM     30  C   UNL d   1     -22.853  24.478  20.691  0.00  0.00     0.015 A 
ENDBRANCH   6  25
TORSDOF 4
ENDMDL
