MODEL 1
REMARK VINA RESULT:      -7.5      0.000      0.000
REMARK  8 active torsions:
REMARK  status: ('A' for Active; 'I' for Inactive)
REMARK    1  A    between atoms: C_4  and  S_5 
REMARK    2  A    between atoms: S_5  and  N_6 
REMARK    3  A    between atoms: C_11  and  N_12 
REMARK       I    between atoms: N_12  and  C_13 
REMARK    4  A    between atoms: C_13  and  C_15 
REMARK    5  A    between atoms: C_19  and  N_20 
REMARK    6  A    between atoms: C_31  and  O_32 
REMARK    7  A    between atoms: O_32  and  C_33 
REMARK    8  A    between atoms: C_33  and  C_35 
ROOT
ATOM      1  C   UNL d   1     -19.761  27.012  25.562  0.00  0.00     0.068 A 
ATOM      2  C   UNL d   1     -21.133  27.249  25.419  0.00  0.00     0.064 A 
ATOM      3  C   UNL d   1     -21.878  26.478  24.556  0.00  0.00     0.146 A 
ATOM      4  F   UNL d   1     -23.203  26.703  24.423  0.00  0.00    -0.204 F 
ATOM      5  C   UNL d   1     -21.267  25.463  23.818  0.00  0.00     0.104 A 
ATOM      6  C   UNL d   1     -19.906  25.226  23.949  0.00  0.00     0.073 A 
ATOM      7  C   UNL d   1     -19.149  25.996  24.815  0.00  0.00     0.087 A 
ENDROOT
BRANCH   1   8
ATOM      8  C   UNL d   1     -18.962  27.831  26.490  0.00  0.00     0.259 C 
ATOM      9  N   UNL d   1     -18.150  27.235  27.385  0.00  0.00    -0.322 N 
ATOM     10  H   UNL d   1     -18.035  26.272  27.371  0.00  0.00     0.169 HD
ATOM     11  O   UNL d   1     -19.035  29.043  26.447  0.00  0.00    -0.267 OA
BRANCH   9  12
ATOM     12  C   UNL d   1     -17.470  28.006  28.334  0.00  0.00     0.041 A 
ATOM     13  C   UNL d   1     -16.141  28.351  28.127  0.00  0.00    -0.034 A 
ATOM     14  C   UNL d   1     -15.429  27.898  26.879  0.00  0.00     0.050 C 
ATOM     15  C   UNL d   1     -15.475  29.118  29.064  0.00  0.00     0.034 A 
ATOM     16  C   UNL d   1     -16.127  29.530  30.211  0.00  0.00     0.080 A 
ATOM     17  C   UNL d   1     -17.448  29.181  30.424  0.00  0.00     0.027 A 
ATOM     18  C   UNL d   1     -18.122  28.421  29.488  0.00  0.00     0.031 A 
BRANCH  16  19
ATOM     19  S   UNL d   1     -15.271  30.500  31.408  0.00  0.00     0.256 S 
ATOM     20  O   UNL d   1     -14.704  29.584  32.336  0.00  0.00    -0.201 OA
ATOM     21  O   UNL d   1     -14.500  31.446  30.680  0.00  0.00    -0.201 OA
BRANCH  19  22
ATOM     22  N   UNL d   1     -16.409  31.367  32.241  0.00  0.00    -0.324 N 
ATOM     23  H   UNL d   1     -16.778  32.179  31.858  0.00  0.00     0.169 HD
ATOM     24  H   UNL d   1     -16.707  31.064  33.113  0.00  0.00     0.169 HD
ENDBRANCH  19  22
ENDBRANCH  16  19
ENDBRANCH   9  12
ENDBRANCH   1   8
BRANCH   7  25
ATOM     25  O   UNL d   1     -17.818  25.763  24.944  0.00  0.00    -0.345 OA
BRANCH  25  26
ATOM     26  C   UNL d   1     -17.006  25.975  23.788  0.00  0.00     0.129 C 
ATOM     27  C   UNL d   1     -16.947  27.471  23.473  0.00  0.00     0.040 C 
BRANCH  26  28
ATOM     28  C   UNL d   1     -15.592  25.455  24.056  0.00  0.00     0.015 C 
ATOM     29  C   UNL d   1     -15.115  24.636  22.855  0.00  0.00     0.007 C 
ATOM     30  C   UNL d   1     -13.700  24.117  23.122  0.00  0.00     0.000 C 
ATOM     31  C   UNL d   1     -13.709  23.233  24.371  0.00  0.00     0.000 C 
ATOM     32  C   UNL d   1     -14.186  24.053  25.572  0.00  0.00     0.000 C 
ATOM     33  C   UNL d   1     -15.601  24.572  25.304  0.00  0.00     0.007 C 
ENDBRANCH  26  28
ENDBRANCH  25  26
ENDBRANCH   7  25
BRANCH   5  34
ATOM     34  N   UNL d   1     -22.029  24.685  22.943  0.00  0.00    -0.178 N 
ATOM     35  C   UNL d   1     -21.924  24.661  21.597  0.00  0.00     0.351 A 
ATOM     36  N   UNL d   1     -22.815  23.764  21.142  0.00  0.00    -0.284 N 
ATOM     37  O   UNL d   1     -21.162  25.328  20.920  0.00  0.00    -0.244 OA
ATOM     38  C   UNL d   1     -23.507  23.254  22.220  0.00  0.00     0.131 A 
ATOM     39  C   UNL d   1     -23.032  23.347  19.751  0.00  0.00     0.135 C 
ATOM     40  N   UNL d   1     -23.041  23.781  23.301  0.00  0.00    -0.149 NA
ATOM     41  C   UNL d   1     -24.631  22.251  22.097  0.00  0.00     0.081 C 
ATOM     42  C   UNL d   1     -24.530  21.592  20.715  0.00  0.00     0.009 C 
ATOM     43  C   UNL d   1     -24.410  22.684  19.648  0.00  0.00     0.021 C 
ENDBRANCH   5  34
TORSDOF 8
ENDMDL
