MODEL 1
REMARK VINA RESULT:     -11.6      0.000      0.000
REMARK  3 active torsions:
REMARK  status: ('A' for Active; 'I' for Inactive)
REMARK       I    between atoms: N_1  and  C_2 
REMARK    1  A    between atoms: C_2  and  C_4 
REMARK    2  A    between atoms: C_11  and  C_12 
REMARK    3  A    between atoms: C_15  and  C_16 
ROOT
ATOM      1  C   UNL d   1     -32.610  21.513  23.173  0.00  0.00     0.062 A 
ATOM      2  C   UNL d   1     -33.535  20.974  24.063  0.00  0.00     0.020 A 
ATOM      3  C   UNL d   1     -33.128  20.523  25.305  0.00  0.00     0.003 A 
ATOM      4  C   UNL d   1     -31.800  20.598  25.681  0.00  0.00     0.032 A 
ATOM      5  C   UNL d   1     -30.858  21.129  24.815  0.00  0.00     0.064 A 
ATOM      6  N   UNL d   1     -29.494  21.335  24.894  0.00  0.00    -0.338 N 
ATOM      7  H   UNL d   1     -28.920  21.119  25.644  0.00  0.00     0.167 HD
ATOM      8  C   UNL d   1     -29.105  21.901  23.711  0.00  0.00     0.139 A 
ATOM      9  N   UNL d   1     -30.149  22.053  22.929  0.00  0.00    -0.227 NA
ATOM     10  C   UNL d   1     -31.251  21.594  23.547  0.00  0.00     0.101 A 
ENDROOT
BRANCH   8  11
ATOM     11  C   UNL d   1     -27.722  22.289  23.367  0.00  0.00     0.010 A 
ATOM     12  C   UNL d   1     -27.066  23.272  24.113  0.00  0.00     0.016 A 
ATOM     13  C   UNL d   1     -25.774  23.628  23.796  0.00  0.00     0.013 A 
ATOM     14  C   UNL d   1     -25.124  23.017  22.724  0.00  0.00    -0.026 A 
ATOM     15  C   UNL d   1     -25.778  22.036  21.979  0.00  0.00     0.013 A 
ATOM     16  C   UNL d   1     -27.068  21.673  22.297  0.00  0.00     0.016 A 
BRANCH  14  17
ATOM     17  C   UNL d   1     -23.735  23.407  22.380  0.00  0.00    -0.026 A 
ATOM     18  C   UNL d   1     -23.440  23.896  21.109  0.00  0.00     0.012 A 
ATOM     19  C   UNL d   1     -22.147  24.260  20.796  0.00  0.00     0.001 A 
ATOM     20  C   UNL d   1     -21.143  24.132  21.738  0.00  0.00     0.000 A 
ATOM     21  C   UNL d   1     -21.429  23.648  23.002  0.00  0.00     0.001 A 
ATOM     22  C   UNL d   1     -22.720  23.284  23.327  0.00  0.00     0.012 A 
ENDBRANCH  14  17
ENDBRANCH   8  11
BRANCH   1  23
ATOM     23  C   UNL d   1     -33.046  21.994  21.849  0.00  0.00     0.251 C 
ATOM     24  N   UNL d   1     -32.192  21.966  20.806  0.00  0.00    -0.366 N 
ATOM     25  H   UNL d   1     -31.290  21.630  20.927  0.00  0.00     0.159 HD
ATOM     26  H   UNL d   1     -32.479  22.282  19.936  0.00  0.00     0.159 HD
ATOM     27  O   UNL d   1     -34.177  22.415  21.698  0.00  0.00    -0.268 OA
ENDBRANCH   1  23
TORSDOF 3
ENDMDL
