MODEL 1
REMARK VINA RESULT:     -11.3      0.000      0.000
REMARK  6 active torsions:
REMARK  status: ('A' for Active; 'I' for Inactive)
REMARK    1  A    between atoms: C_7  and  C_8 
REMARK    2  A    between atoms: C_11  and  N_12 
REMARK    3  A    between atoms: N_12  and  C_13 
REMARK    4  A    between atoms: C_16  and  C_17 
REMARK    5  A    between atoms: C_21  and  C_22 
REMARK    6  A    between atoms: C_22  and  O_24 
ROOT
ATOM      1  N   UNL d   1     -28.039  22.476  24.278  0.00  0.00    -0.353 N 
ATOM      2  H   UNL d   1     -28.080  22.318  25.234  0.00  0.00     0.166 HD
ENDROOT
BRANCH   1   3
ATOM      3  C   UNL d   1     -26.830  22.835  23.679  0.00  0.00     0.068 A 
ATOM      4  C   UNL d   1     -26.206  24.041  23.997  0.00  0.00     0.150 A 
ATOM      5  N   UNL d   1     -25.062  24.347  23.412  0.00  0.00    -0.238 NA
ATOM      6  C   UNL d   1     -24.508  23.524  22.532  0.00  0.00     0.159 A 
ATOM      7  N   UNL d   1     -25.072  22.368  22.206  0.00  0.00    -0.238 NA
ATOM      8  C   UNL d   1     -26.214  21.994  22.755  0.00  0.00     0.150 A 
BRANCH   6   9
ATOM      9  C   UNL d   1     -23.223  23.904  21.898  0.00  0.00     0.018 A 
ATOM     10  C   UNL d   1     -22.025  23.738  22.589  0.00  0.00    -0.048 A 
ATOM     11  C   UNL d   1     -22.031  23.173  23.986  0.00  0.00     0.049 C 
ATOM     12  C   UNL d   1     -20.832  24.094  21.993  0.00  0.00     0.007 A 
ATOM     13  C   UNL d   1     -20.825  24.614  20.711  0.00  0.00     0.001 A 
ATOM     14  C   UNL d   1     -22.010  24.781  20.020  0.00  0.00     0.001 A 
ATOM     15  C   UNL d   1     -23.209  24.423  20.604  0.00  0.00     0.016 A 
ENDBRANCH   6   9
ENDBRANCH   1   3
BRANCH   1  16
ATOM     16  C   UNL d   1     -29.186  22.350  23.505  0.00  0.00     0.049 A 
ATOM     17  C   UNL d   1     -30.383  21.899  24.087  0.00  0.00     0.064 A 
ATOM     18  C   UNL d   1     -31.530  21.776  23.299  0.00  0.00     0.028 A 
ATOM     19  C   UNL d   1     -31.481  22.094  21.959  0.00  0.00    -0.053 A 
ATOM     20  C   UNL d   1     -30.297  22.533  21.387  0.00  0.00     0.010 A 
ATOM     21  C   UNL d   1     -29.157  22.666  22.153  0.00  0.00     0.031 A 
BRANCH  17  22
ATOM     22  C   UNL d   1     -30.429  21.561  25.520  0.00  0.00     0.178 C 
ATOM     23  O   UNL d   1     -31.359  21.939  26.204  0.00  0.00    -0.646 OA
BRANCH  22  24
ATOM     24  O   UNL d   1     -29.438  20.834  26.073  0.00  0.00    -0.773 OA
ATOM     25  H   UNL d   1     -29.533  20.601  27.007  0.00  0.00     0.167 HD
ENDBRANCH  22  24
ENDBRANCH  17  22
BRANCH  19  26
ATOM     26  C   UNL d   1     -32.719  21.960  21.111  0.00  0.00     0.018 A 
ATOM     27  C   UNL d   1     -34.067  22.233  21.782  0.00  0.00     0.010 A 
ATOM     28  C   UNL d   1     -33.666  20.800  21.424  0.00  0.00     0.010 A 
ENDBRANCH  19  26
ENDBRANCH   1  16
TORSDOF 6
ENDMDL
