MODEL 1
REMARK VINA RESULT:     -10.3      0.000      0.000
REMARK  7 active torsions:
REMARK  status: ('A' for Active; 'I' for Inactive)
REMARK    1  A    between atoms: C_2  and  C_3 
REMARK    2  A    between atoms: C_3  and  O_4 
REMARK    3  A    between atoms: C_5  and  C_8 
REMARK       I    between atoms: C_8  and  N_10 
REMARK    4  A    between atoms: N_10  and  C_11 
REMARK    5  A    between atoms: C_14  and  C_15 
REMARK    6  A    between atoms: C_22  and  C_23 
REMARK    7  A    between atoms: C_23  and  O_25 
ROOT
ATOM      1  C   UNL d   1     -32.298  21.758  22.692  0.00  0.00     0.069 C 
ATOM      2  C   UNL d   1     -31.380  21.901  23.689  0.00  0.00     0.141 C 
ATOM      3  C   UNL d   1     -31.726  21.559  25.036  0.00  0.00     0.107 C 
ATOM      4  N   UNL d   1     -32.000  21.289  26.105  0.00  0.00    -0.191 NA
ENDROOT
BRANCH   2   5
ATOM      5  C   UNL d   1     -30.034  22.406  23.383  0.00  0.00     0.269 C 
ATOM      6  O   UNL d   1     -29.870  23.179  22.457  0.00  0.00    -0.266 OA
ATOM      7  N   UNL d   1     -28.981  22.013  24.126  0.00  0.00    -0.322 N 
ATOM      8  H   UNL d   1     -29.119  21.453  24.905  0.00  0.00     0.169 HD
BRANCH   7   9
ATOM      9  C   UNL d   1     -27.688  22.415  23.775  0.00  0.00     0.036 A 
ATOM     10  C   UNL d   1     -27.073  21.864  22.662  0.00  0.00     0.048 A 
ATOM     11  C   UNL d   1     -25.784  22.264  22.311  0.00  0.00     0.052 A 
ATOM     12  C   UNL d   1     -25.117  23.226  23.092  0.00  0.00    -0.008 A 
ATOM     13  C   UNL d   1     -25.748  23.766  24.211  0.00  0.00     0.015 A 
ATOM     14  C   UNL d   1     -27.025  23.366  24.544  0.00  0.00     0.030 A 
BRANCH  11  15
ATOM     15  C   UNL d   1     -25.122  21.682  21.128  0.00  0.00     0.293 C 
ATOM     16  O   UNL d   1     -24.335  20.765  21.262  0.00  0.00    -0.259 OA
BRANCH  15  17
ATOM     17  O   UNL d   1     -25.390  22.166  19.899  0.00  0.00    -0.322 OA
ATOM     18  C   UNL d   1     -24.258  22.412  19.026  0.00  0.00     0.213 C 
ENDBRANCH  15  17
ENDBRANCH  11  15
BRANCH  12  19
ATOM     19  C   UNL d   1     -23.746  23.659  22.731  0.00  0.00    -0.007 A 
ATOM     20  C   UNL d   1     -23.548  24.664  21.786  0.00  0.00     0.132 A 
ATOM     21  N   UNL d   1     -22.331  25.050  21.462  0.00  0.00    -0.232 NA
ATOM     22  C   UNL d   1     -21.259  24.508  22.012  0.00  0.00     0.209 A 
ATOM     23  C   UNL d   1     -21.375  23.503  22.961  0.00  0.00     0.064 A 
ATOM     24  F   UNL d   1     -20.033  24.940  21.646  0.00  0.00    -0.184 F 
ATOM     25  C   UNL d   1     -22.632  23.065  23.333  0.00  0.00     0.018 A 
ENDBRANCH  12  19
ENDBRANCH   7   9
ENDBRANCH   2   5
BRANCH   1  26
ATOM     26  C   UNL d   1     -33.678  21.241  23.008  0.00  0.00     0.061 C 
ATOM     27  C   UNL d   1     -34.105  20.240  21.933  0.00  0.00     0.012 C 
ENDBRANCH   1  26
BRANCH   1  28
ATOM     28  O   UNL d   1     -31.973  22.078  21.429  0.00  0.00    -0.363 OA
ATOM     29  H   UNL d   1     -32.700  22.304  20.832  0.00  0.00     0.217 HD
ENDBRANCH   1  28
TORSDOF 7
ENDMDL
