MODEL 1
REMARK VINA RESULT:     -12.5      0.000      0.000
REMARK  4 active torsions:
REMARK  status: ('A' for Active; 'I' for Inactive)
REMARK    1  A    between atoms: C_4  and  C_5 
REMARK    2  A    between atoms: C_5  and  O_7 
REMARK    3  A    between atoms: C_11  and  C_12 
REMARK    4  A    between atoms: C_15  and  C_16 
ROOT
ATOM      1  C   UNL d   1     -34.304  21.522  22.234  0.00  0.00     0.048 C 
ATOM      2  C   UNL d   1     -32.921  21.565  22.832  0.00  0.00    -0.059 A 
ATOM      3  C   UNL d   1     -32.724  21.134  24.131  0.00  0.00     0.027 A 
ATOM      4  C   UNL d   1     -31.450  21.169  24.698  0.00  0.00     0.067 A 
ATOM      5  C   UNL d   1     -30.369  21.642  23.941  0.00  0.00     0.080 A 
ATOM      6  N   UNL d   1     -29.026  21.797  24.190  0.00  0.00    -0.337 N 
ATOM      7  H   UNL d   1     -28.566  21.580  25.016  0.00  0.00     0.167 HD
ATOM      8  C   UNL d   1     -28.459  22.317  23.056  0.00  0.00     0.142 A 
ATOM      9  N   UNL d   1     -29.379  22.477  22.136  0.00  0.00    -0.228 NA
ATOM     10  C   UNL d   1     -30.580  22.079  22.622  0.00  0.00     0.087 A 
ATOM     11  C   UNL d   1     -31.867  22.034  22.077  0.00  0.00     0.040 A 
ENDROOT
BRANCH   8  12
ATOM     12  C   UNL d   1     -27.027  22.643  22.894  0.00  0.00     0.049 A 
ATOM     13  C   UNL d   1     -26.242  21.921  21.989  0.00  0.00     0.131 A 
ATOM     14  C   UNL d   1     -24.906  22.226  21.840  0.00  0.00     0.055 A 
ATOM     15  F   UNL d   1     -26.792  20.921  21.266  0.00  0.00    -0.205 F 
ATOM     16  C   UNL d   1     -24.338  23.255  22.591  0.00  0.00    -0.020 A 
ATOM     17  C   UNL d   1     -25.121  23.975  23.495  0.00  0.00     0.013 A 
ATOM     18  C   UNL d   1     -26.454  23.672  23.646  0.00  0.00     0.019 A 
BRANCH  16  19
ATOM     19  C   UNL d   1     -22.901  23.583  22.430  0.00  0.00     0.013 A 
ATOM     20  C   UNL d   1     -22.454  24.216  21.268  0.00  0.00     0.130 A 
ATOM     21  C   UNL d   1     -21.113  24.520  21.125  0.00  0.00     0.085 A 
ATOM     22  F   UNL d   1     -23.329  24.532  20.289  0.00  0.00    -0.205 F 
ATOM     23  C   UNL d   1     -20.216  24.198  22.130  0.00  0.00     0.119 A 
ATOM     24  C   UNL d   1     -20.658  23.569  23.283  0.00  0.00     0.043 A 
ATOM     25  F   UNL d   1     -18.906  24.496  21.985  0.00  0.00    -0.206 F 
ATOM     26  C   UNL d   1     -21.994  23.266  23.440  0.00  0.00     0.018 A 
ENDBRANCH  16  19
ENDBRANCH   8  12
BRANCH   4  27
ATOM     27  C   UNL d   1     -31.241  20.709  26.083  0.00  0.00     0.178 C 
ATOM     28  O   UNL d   1     -30.591  21.384  26.855  0.00  0.00    -0.646 OA
BRANCH  27  29
ATOM     29  O   UNL d   1     -31.773  19.541  26.492  0.00  0.00    -0.773 OA
ATOM     30  H   UNL d   1     -32.550  19.589  27.066  0.00  0.00     0.167 HD
ENDBRANCH  27  29
ENDBRANCH   4  27
TORSDOF 4
ENDMDL
