MODEL 1
REMARK VINA RESULT:     -11.2      0.000      0.000
REMARK  7 active torsions:
REMARK  status: ('A' for Active; 'I' for Inactive)
REMARK    1  A    between atoms: N_2  and  N_3 
REMARK    2  A    between atoms: N_2  and  C_18 
REMARK    3  A    between atoms: C_4  and  C_5 
REMARK    4  A    between atoms: C_8  and  C_9 
REMARK    5  A    between atoms: C_14  and  C_15 
REMARK    6  A    between atoms: C_15  and  O_17 
REMARK    7  A    between atoms: C_20  and  C_21 
ROOT
ATOM      1  N   UNL d   1     -28.024  22.824  23.232  0.00  0.00    -0.182 NA
ATOM      2  C   UNL d   1     -28.997  22.425  23.997  0.00  0.00     0.151 C 
ENDROOT
BRANCH   1   3
ATOM      3  N   UNL d   1     -26.813  23.241  23.799  0.00  0.00    -0.251 N 
ATOM      4  C   UNL d   1     -26.802  23.876  25.118  0.00  0.00     0.182 C 
BRANCH   3   5
ATOM      5  C   UNL d   1     -25.625  23.053  23.111  0.00  0.00     0.189 A 
ATOM      6  S   UNL d   1     -25.384  21.907  21.794  0.00  0.00    -0.060 SA
ATOM      7  C   UNL d   1     -23.705  22.424  21.652  0.00  0.00     0.086 A 
ATOM      8  C   UNL d   1     -23.478  23.374  22.577  0.00  0.00     0.078 A 
ATOM      9  N   UNL d   1     -24.517  23.687  23.338  0.00  0.00    -0.222 NA
BRANCH   8  10
ATOM     10  C   UNL d   1     -22.154  24.026  22.736  0.00  0.00     0.015 A 
ATOM     11  C   UNL d   1     -21.656  24.851  21.729  0.00  0.00     0.046 A 
ATOM     12  C   UNL d   1     -20.423  25.456  21.882  0.00  0.00     0.025 A 
ATOM     13 CL   UNL d   1     -22.582  25.119  20.284  0.00  0.00    -0.083 Cl
ATOM     14  C   UNL d   1     -19.685  25.243  23.031  0.00  0.00     0.002 A 
ATOM     15  C   UNL d   1     -20.175  24.425  24.034  0.00  0.00     0.001 A 
ATOM     16  C   UNL d   1     -21.408  23.820  23.894  0.00  0.00     0.015 A 
ENDBRANCH   8  10
ENDBRANCH   3   5
ENDBRANCH   1   3
BRANCH   2  17
ATOM     17  C   UNL d   1     -30.303  22.092  23.412  0.00  0.00    -0.000 A 
ATOM     18  C   UNL d   1     -31.294  21.463  24.195  0.00  0.00     0.050 A 
ATOM     19  C   UNL d   1     -32.529  21.153  23.624  0.00  0.00     0.035 A 
ATOM     20  C   UNL d   1     -32.775  21.462  22.303  0.00  0.00     0.049 A 
ATOM     21  C   UNL d   1     -31.801  22.081  21.532  0.00  0.00     0.017 A 
ATOM     22  C   UNL d   1     -30.577  22.402  22.077  0.00  0.00     0.015 A 
BRANCH  18  23
ATOM     23  C   UNL d   1     -31.026  21.134  25.606  0.00  0.00     0.177 C 
ATOM     24  O   UNL d   1     -31.294  21.937  26.479  0.00  0.00    -0.646 OA
BRANCH  23  25
ATOM     25  O   UNL d   1     -30.484  19.944  25.930  0.00  0.00    -0.773 OA
ATOM     26  H   UNL d   1     -29.988  19.483  25.239  0.00  0.00     0.167 HD
ENDBRANCH  23  25
ENDBRANCH  18  23
BRANCH  20  27
ATOM     27  C   UNL d   1     -34.110  21.125  21.691  0.00  0.00     0.417 C 
ATOM     28  F   UNL d   1     -33.917  20.308  20.571  0.00  0.00    -0.166 F 
ATOM     29  F   UNL d   1     -34.897  20.452  22.630  0.00  0.00    -0.166 F 
ATOM     30  F   UNL d   1     -34.754  22.305  21.301  0.00  0.00    -0.166 F 
ENDBRANCH  20  27
ENDBRANCH   2  17
TORSDOF 7
ENDMDL
