MODEL 1
REMARK VINA RESULT:      -9.5      0.000      0.000
REMARK  9 active torsions:
REMARK  status: ('A' for Active; 'I' for Inactive)
REMARK    1  A    between atoms: O_2  and  C_3 
REMARK    2  A    between atoms: C_9  and  N_10 
REMARK       I    between atoms: N_10  and  C_11 
REMARK    3  A    between atoms: C_11  and  C_13 
REMARK    4  A    between atoms: C_17  and  N_18 
REMARK    5  A    between atoms: C_20  and  C_21 
REMARK    6  A    between atoms: C_21  and  O_24 
REMARK    7  A    between atoms: C_30  and  O_31 
REMARK    8  A    between atoms: O_31  and  C_32 
REMARK    9  A    between atoms: C_32  and  C_34 
ROOT
ATOM      1  C   UNL d   1     -24.213  24.595  23.605  0.00  0.00     0.068 A 
ATOM      2  C   UNL d   1     -25.114  25.111  24.543  0.00  0.00     0.064 A 
ATOM      3  C   UNL d   1     -26.357  24.539  24.689  0.00  0.00     0.146 A 
ATOM      4  F   UNL d   1     -27.228  25.041  25.591  0.00  0.00    -0.204 F 
ATOM      5  C   UNL d   1     -26.718  23.438  23.911  0.00  0.00     0.104 A 
ATOM      6  C   UNL d   1     -25.829  22.917  22.982  0.00  0.00     0.073 A 
ATOM      7  C   UNL d   1     -24.578  23.488  22.825  0.00  0.00     0.087 A 
ENDROOT
BRANCH   1   8
ATOM      8  C   UNL d   1     -22.883  25.207  23.441  0.00  0.00     0.259 C 
ATOM      9  N   UNL d   1     -21.808  24.651  24.034  0.00  0.00    -0.319 N 
ATOM     10  H   UNL d   1     -21.895  23.805  24.501  0.00  0.00     0.169 HD
ATOM     11  O   UNL d   1     -22.755  26.213  22.771  0.00  0.00    -0.267 OA
BRANCH   9  12
ATOM     12  C   UNL d   1     -20.566  25.294  23.977  0.00  0.00     0.094 A 
ATOM     13  C   UNL d   1     -20.225  26.261  24.924  0.00  0.00     0.191 A 
ATOM     14  N   UNL d   1     -19.052  26.869  24.871  0.00  0.00    -0.235 NA
ATOM     15  C   UNL d   1     -18.168  26.589  23.933  0.00  0.00     0.120 A 
ATOM     16  C   UNL d   1     -18.433  25.640  22.967  0.00  0.00     0.028 A 
ATOM     17  C   UNL d   1     -19.653  24.980  22.978  0.00  0.00    -0.029 A 
ATOM     18  C   UNL d   1     -19.977  23.941  21.935  0.00  0.00     0.050 C 
BRANCH  13  19
ATOM     19  O   UNL d   1     -21.106  26.580  25.907  0.00  0.00    -0.338 OA
ATOM     20  C   UNL d   1     -21.564  27.932  25.954  0.00  0.00     0.211 C 
ENDBRANCH  13  19
ENDBRANCH   9  12
ENDBRANCH   1   8
BRANCH   7  21
ATOM     21  O   UNL d   1     -23.708  22.979  21.915  0.00  0.00    -0.336 OA
BRANCH  21  22
ATOM     22  C   UNL d   1     -23.966  23.265  20.539  0.00  0.00     0.232 C 
ATOM     23  C   UNL d   1     -22.665  23.680  19.851  0.00  0.00     0.049 C 
BRANCH  22  24
ATOM     24  C   UNL d   1     -24.529  22.017  19.856  0.00  0.00     0.413 C 
ATOM     25  F   UNL d   1     -24.023  21.930  18.555  0.00  0.00    -0.168 F 
ATOM     26  F   UNL d   1     -24.155  20.880  20.579  0.00  0.00    -0.168 F 
ATOM     27  F   UNL d   1     -25.925  22.101  19.808  0.00  0.00    -0.168 F 
ENDBRANCH  22  24
ENDBRANCH  21  22
ENDBRANCH   7  21
BRANCH   5  28
ATOM     28  N   UNL d   1     -27.979  22.859  24.069  0.00  0.00    -0.178 N 
ATOM     29  C   UNL d   1     -28.382  22.089  25.102  0.00  0.00     0.351 A 
ATOM     30  N   UNL d   1     -29.662  21.738  24.869  0.00  0.00    -0.286 N 
ATOM     31  O   UNL d   1     -27.713  21.773  26.069  0.00  0.00    -0.244 OA
ATOM     32  C   UNL d   1     -30.051  22.291  23.674  0.00  0.00     0.164 A 
ATOM     33  C   UNL d   1     -30.495  20.905  25.739  0.00  0.00     0.163 C 
ATOM     34  N   UNL d   1     -29.059  22.962  23.182  0.00  0.00    -0.146 NA
BRANCH  32  35
ATOM     35  C   UNL d   1     -31.408  22.140  23.038  0.00  0.00     0.112 C 
ATOM     36  C   UNL d   1     -31.257  22.114  21.515  0.00  0.00     0.054 C 
ATOM     37  C   UNL d   1     -32.051  20.834  23.509  0.00  0.00     0.054 C 
BRANCH  35  38
ATOM     38  O   UNL d   1     -32.237  23.242  23.415  0.00  0.00    -0.383 OA
ATOM     39  H   UNL d   1     -32.314  23.926  22.735  0.00  0.00     0.211 HD
ENDBRANCH  35  38
ENDBRANCH  32  35
ENDBRANCH   5  28
TORSDOF 9
ENDMDL
