MODEL 1
REMARK VINA RESULT:     -10.2      0.000      0.000
REMARK  9 active torsions:
REMARK  status: ('A' for Active; 'I' for Inactive)
REMARK    1  A    between atoms: C_2  and  C_17 
REMARK    2  A    between atoms: C_3  and  C_4 
REMARK    3  A    between atoms: C_4  and  C_5 
REMARK    4  A    between atoms: C_6  and  O_7 
REMARK    5  A    between atoms: C_12  and  C_13 
REMARK    6  A    between atoms: C_15  and  O_16 
REMARK    7  A    between atoms: C_17  and  C_18 
REMARK    8  A    between atoms: C_18  and  C_19 
REMARK    9  A    between atoms: C_20  and  C_22 
ROOT
ATOM      1  C   UNL d   1     -28.364  20.898  20.061  0.00  0.00     0.043 C 
ATOM      2  C   UNL d   1     -27.642  21.482  21.248  0.00  0.00    -0.087 C 
ATOM      3  C   UNL d   1     -28.238  22.369  22.006  0.00  0.00    -0.020 C 
ENDROOT
BRANCH   3   4
ATOM      4  C   UNL d   1     -29.605  22.883  21.631  0.00  0.00     0.072 C 
BRANCH   4   5
ATOM      5  C   UNL d   1     -30.647  22.203  22.481  0.00  0.00     0.014 A 
ATOM      6  C   UNL d   1     -30.383  21.925  23.811  0.00  0.00     0.088 A 
ATOM      7  C   UNL d   1     -31.362  21.290  24.596  0.00  0.00     0.043 A 
ATOM      8  C   UNL d   1     -32.593  20.943  24.023  0.00  0.00    -0.021 A 
ATOM      9  C   UNL d   1     -32.842  21.229  22.711  0.00  0.00     0.074 A 
ATOM     10  C   UNL d   1     -33.645  20.257  24.856  0.00  0.00     0.051 C 
ATOM     11  C   UNL d   1     -31.873  21.857  21.931  0.00  0.00     0.097 A 
ATOM     12 CL   UNL d   1     -34.371  20.803  22.009  0.00  0.00    -0.081 Cl
BRANCH   6  13
ATOM     13  O   UNL d   1     -29.186  22.260  24.353  0.00  0.00    -0.359 OA
ATOM     14  H   UNL d   1     -29.210  23.061  24.893  0.00  0.00     0.217 HD
ENDBRANCH   6  13
BRANCH   7  15
ATOM     15  C   UNL d   1     -31.095  20.990  26.005  0.00  0.00     0.273 C 
ATOM     16  O   UNL d   1     -30.613  21.838  26.725  0.00  0.00    -0.301 OA
ENDBRANCH   7  15
BRANCH  11  17
ATOM     17  O   UNL d   1     -32.130  22.132  20.628  0.00  0.00    -0.358 OA
ATOM     18  H   UNL d   1     -33.051  22.365  20.449  0.00  0.00     0.217 HD
ENDBRANCH  11  17
ENDBRANCH   4   5
ENDBRANCH   3   4
BRANCH   2  19
ATOM     19  C   UNL d   1     -26.234  21.046  21.564  0.00  0.00     0.037 C 
BRANCH  19  20
ATOM     20  C   UNL d   1     -25.244  22.045  20.962  0.00  0.00     0.032 C 
BRANCH  20  21
ATOM     21  C   UNL d   1     -24.489  22.733  22.070  0.00  0.00    -0.021 C 
ATOM     22  C   UNL d   1     -23.491  23.533  21.784  0.00  0.00    -0.059 C 
ATOM     23  C   UNL d   1     -23.172  23.855  20.346  0.00  0.00     0.046 C 
BRANCH  22  24
ATOM     24  C   UNL d   1     -22.664  24.131  22.892  0.00  0.00     0.158 C 
ATOM     25  O   UNL d   1     -21.268  24.170  22.522  0.00  0.00    -0.363 OA
ATOM     26  C   UNL d   1     -20.659  25.188  23.335  0.00  0.00     0.115 C 
ATOM     27  C   UNL d   1     -21.740  26.181  23.714  0.00  0.00     0.163 C 
ATOM     28  C   UNL d   1     -19.558  25.895  22.543  0.00  0.00     0.054 C 
ATOM     29  C   UNL d   1     -20.068  24.558  24.598  0.00  0.00     0.054 C 
ATOM     30  C   UNL d   1     -23.016  25.627  23.092  0.00  0.00     0.118 C 
ATOM     31  O   UNL d   1     -21.617  27.191  24.366  0.00  0.00    -0.295 OA
ENDBRANCH  22  24
ENDBRANCH  20  21
ENDBRANCH  19  20
ENDBRANCH   2  19
TORSDOF 9
ENDMDL
