MODEL 1
REMARK VINA RESULT:     -10.7      0.000      0.000
REMARK  6 active torsions:
REMARK  status: ('A' for Active; 'I' for Inactive)
REMARK    1  A    between atoms: C_2  and  O_3 
REMARK    2  A    between atoms: C_2  and  C_33 
REMARK    3  A    between atoms: O_3  and  C_4 
REMARK    4  A    between atoms: C_6  and  N_7 
REMARK    5  A    between atoms: C_20  and  C_21 
REMARK       I    between atoms: C_21  and  N_23 
REMARK    6  A    between atoms: N_23  and  C_24 
ROOT
ATOM      1  C   UNL d   1     -20.562  24.856  23.487  0.00  0.00     0.056 A 
ATOM      2  C   UNL d   1     -19.883  24.465  22.341  0.00  0.00     0.034 A 
ATOM      3  C   UNL d   1     -18.618  24.956  22.084  0.00  0.00     0.044 A 
ATOM      4  C   UNL d   1     -18.012  25.833  22.972  0.00  0.00     0.117 A 
ATOM      5  F   UNL d   1     -16.773  26.302  22.712  0.00  0.00    -0.206 F 
ATOM      6  C   UNL d   1     -18.672  26.229  24.118  0.00  0.00     0.067 A 
ATOM      7  C   UNL d   1     -19.954  25.744  24.387  0.00  0.00     0.074 A 
ATOM      8  C   UNL d   1     -20.642  26.149  25.575  0.00  0.00     0.102 C 
ATOM      9  N   UNL d   1     -21.189  26.472  26.517  0.00  0.00    -0.191 NA
ENDROOT
BRANCH   1  10
ATOM     10  N   UNL d   1     -21.842  24.366  23.745  0.00  0.00    -0.321 N 
ATOM     11  C   UNL d   1     -22.918  24.988  23.224  0.00  0.00     0.259 C 
ATOM     12  O   UNL d   1     -22.780  26.019  22.593  0.00  0.00    -0.267 OA
ATOM     13  H   UNL d   1     -21.957  23.578  24.299  0.00  0.00     0.169 HD
BRANCH  11  14
ATOM     14  C   UNL d   1     -24.263  24.420  23.421  0.00  0.00     0.068 A 
ATOM     15  C   UNL d   1     -24.693  23.342  22.632  0.00  0.00     0.087 A 
ATOM     16  C   UNL d   1     -25.959  22.816  22.819  0.00  0.00     0.073 A 
ATOM     17  C   UNL d   1     -26.798  23.348  23.789  0.00  0.00     0.104 A 
ATOM     18  C   UNL d   1     -26.369  24.416  24.577  0.00  0.00     0.146 A 
ATOM     19  F   UNL d   1     -27.191  24.929  25.519  0.00  0.00    -0.204 F 
ATOM     20  C   UNL d   1     -25.114  24.950  24.396  0.00  0.00     0.064 A 
BRANCH  15  21
ATOM     21  O   UNL d   1     -23.871  22.820  21.687  0.00  0.00    -0.336 OA
BRANCH  21  22
ATOM     22  C   UNL d   1     -23.964  23.370  20.372  0.00  0.00     0.232 C 
ATOM     23  C   UNL d   1     -22.571  23.789  19.895  0.00  0.00     0.049 C 
BRANCH  22  24
ATOM     24  C   UNL d   1     -24.534  22.317  19.418  0.00  0.00     0.413 C 
ATOM     25  F   UNL d   1     -24.624  22.854  18.130  0.00  0.00    -0.168 F 
ATOM     26  F   UNL d   1     -23.691  21.201  19.399  0.00  0.00    -0.168 F 
ATOM     27  F   UNL d   1     -25.806  21.933  19.854  0.00  0.00    -0.168 F 
ENDBRANCH  22  24
ENDBRANCH  21  22
ENDBRANCH  15  21
BRANCH  17  28
ATOM     28  N   UNL d   1     -28.073  22.811  23.977  0.00  0.00    -0.178 N 
ATOM     29  C   UNL d   1     -28.474  22.042  25.013  0.00  0.00     0.351 A 
ATOM     30  N   UNL d   1     -29.771  21.766  24.827  0.00  0.00    -0.280 N 
ATOM     31  O   UNL d   1     -27.783  21.669  25.945  0.00  0.00    -0.244 OA
ATOM     32  C   UNL d   1     -30.172  22.337  23.633  0.00  0.00     0.155 A 
ATOM     33  C   UNL d   1     -30.683  21.011  25.695  0.00  0.00     0.161 C 
ATOM     34  N   UNL d   1     -29.175  22.967  23.121  0.00  0.00    -0.147 NA
ATOM     35  C   UNL d   1     -31.573  22.189  23.087  0.00  0.00     0.248 C 
ATOM     36  O   UNL d   1     -32.411  21.740  24.161  0.00  0.00    -0.382 OA
ATOM     37  C   UNL d   1     -31.900  20.598  24.856  0.00  0.00     0.188 C 
ENDBRANCH  17  28
ENDBRANCH  11  14
ENDBRANCH   1  10
TORSDOF 6
ENDMDL
