MODEL 1
REMARK VINA RESULT:      -9.6      0.000      0.000
REMARK  6 active torsions:
REMARK  status: ('A' for Active; 'I' for Inactive)
REMARK    1  A    between atoms: C_2  and  N_3 
REMARK    2  A    between atoms: C_5  and  C_6 
REMARK    3  A    between atoms: C_9  and  C_10 
REMARK    4  A    between atoms: N_14  and  C_15 
REMARK    5  A    between atoms: C_29  and  C_30 
REMARK    6  A    between atoms: C_30  and  O_33 
ROOT
ATOM      1  C   UNL d   1     -28.595  22.197  22.304  0.00  0.00     0.053 A 
ATOM      2  C   UNL d   1     -27.869  23.135  23.026  0.00  0.00     0.031 A 
ATOM      3  C   UNL d   1     -26.522  23.332  22.730  0.00  0.00    -0.011 A 
ATOM      4  C   UNL d   1     -25.702  24.301  23.460  0.00  0.00    -0.027 A 
ATOM      5  C   UNL d   1     -24.410  24.455  23.130  0.00  0.00     0.109 A 
ATOM      6  N   UNL d   1     -23.821  23.735  22.128  0.00  0.00    -0.288 N 
ATOM      7  C   UNL d   1     -24.496  22.821  21.405  0.00  0.00     0.263 A 
ATOM      8  O   UNL d   1     -23.936  22.199  20.521  0.00  0.00    -0.267 OA
ATOM      9  C   UNL d   1     -25.915  22.583  21.692  0.00  0.00     0.046 A 
ATOM     10  C   UNL d   1     -26.664  21.650  20.976  0.00  0.00     0.061 A 
ATOM     11  C   UNL d   1     -27.984  21.462  21.280  0.00  0.00     0.131 A 
ATOM     12  F   UNL d   1     -28.707  20.556  20.585  0.00  0.00    -0.205 F 
ENDROOT
BRANCH   1  13
ATOM     13  C   UNL d   1     -30.028  21.975  22.616  0.00  0.00     0.184 A 
ATOM     14  N   UNL d   1     -30.514  21.635  23.790  0.00  0.00    -0.150 NA
ATOM     15  N   UNL d   1     -31.906  21.539  23.638  0.00  0.00    -0.252 N 
ATOM     16  C   UNL d   1     -32.173  21.836  22.354  0.00  0.00     0.158 A 
ATOM     17  N   UNL d   1     -31.043  22.095  21.749  0.00  0.00    -0.208 NA
BRANCH  15  18
ATOM     18  C   UNL d   1     -32.880  21.187  24.676  0.00  0.00     0.148 C 
ATOM     19  C   UNL d   1     -32.579  19.782  25.201  0.00  0.00     0.028 C 
ENDBRANCH  15  18
BRANCH  16  20
ATOM     20  C   UNL d   1     -33.539  21.863  21.719  0.00  0.00     0.112 C 
ATOM     21  C   UNL d   1     -34.177  20.476  21.820  0.00  0.00     0.054 C 
ATOM     22  C   UNL d   1     -34.420  22.882  22.447  0.00  0.00     0.054 C 
BRANCH  20  23
ATOM     23  O   UNL d   1     -33.419  22.233  20.344  0.00  0.00    -0.383 OA
ATOM     24  H   UNL d   1     -33.484  21.490  19.730  0.00  0.00     0.211 HD
ENDBRANCH  20  23
ENDBRANCH  16  20
ENDBRANCH   1  13
BRANCH   4  25
ATOM     25  C   UNL d   1     -26.305  25.120  24.573  0.00  0.00     0.013 C 
ATOM     26  C   UNL d   1     -26.699  24.198  25.729  0.00  0.00     0.015 C 
ATOM     27  C   UNL d   1     -25.279  26.144  25.065  0.00  0.00     0.015 C 
ENDBRANCH   4  25
BRANCH   6  28
ATOM     28  C   UNL d   1     -22.467  23.954  21.846  0.00  0.00     0.048 A 
ATOM     29  C   UNL d   1     -21.490  23.486  22.715  0.00  0.00    -0.035 A 
ATOM     30  C   UNL d   1     -20.156  23.704  22.433  0.00  0.00     0.009 A 
ATOM     31  C   UNL d   1     -21.885  22.741  23.964  0.00  0.00     0.050 C 
ATOM     32  C   UNL d   1     -19.792  24.387  21.287  0.00  0.00     0.001 A 
ATOM     33  C   UNL d   1     -20.763  24.853  20.419  0.00  0.00     0.002 A 
ATOM     34  C   UNL d   1     -22.098  24.635  20.692  0.00  0.00     0.030 A 
ENDBRANCH   6  28
TORSDOF 6
ENDMDL
