MODEL 1
REMARK VINA RESULT:     -13.0      0.000      0.000
REMARK  6 active torsions:
REMARK  status: ('A' for Active; 'I' for Inactive)
REMARK       I    between atoms: C_2  and  N_3 
REMARK    1  A    between atoms: C_2  and  C_25 
REMARK    2  A    between atoms: N_3  and  C_4 
REMARK    3  A    between atoms: C_9  and  C_10 
REMARK    4  A    between atoms: C_14  and  O_15 
REMARK    5  A    between atoms: O_15  and  C_16 
REMARK    6  A    between atoms: C_26  and  O_27 
ROOT
ATOM      1  C   UNL d   1     -26.772  22.372  23.079  0.00  0.00     0.119 A 
ATOM      2  C   UNL d   1     -26.187  23.462  23.713  0.00  0.00     0.185 A 
ATOM      3  F   UNL d   1     -26.806  24.046  24.762  0.00  0.00    -0.200 F 
ATOM      4  C   UNL d   1     -24.967  23.944  23.274  0.00  0.00     0.171 A 
ATOM      5  F   UNL d   1     -24.395  25.000  23.894  0.00  0.00    -0.202 F 
ATOM      6  C   UNL d   1     -24.330  23.343  22.188  0.00  0.00     0.058 A 
ATOM      7  C   UNL d   1     -24.924  22.253  21.550  0.00  0.00     0.171 A 
ATOM      8  F   UNL d   1     -24.310  21.669  20.497  0.00  0.00    -0.202 F 
ATOM      9  C   UNL d   1     -26.140  21.771  21.995  0.00  0.00     0.185 A 
ATOM     10  F   UNL d   1     -26.716  20.716  21.378  0.00  0.00    -0.200 F 
ENDROOT
BRANCH   1  11
ATOM     11  N   UNL d   1     -28.005  21.882  23.529  0.00  0.00    -0.317 N 
ATOM     12  C   UNL d   1     -29.151  22.418  23.068  0.00  0.00     0.263 C 
ATOM     13  O   UNL d   1     -29.119  23.263  22.191  0.00  0.00    -0.267 OA
ATOM     14  H   UNL d   1     -28.033  21.156  24.171  0.00  0.00     0.169 HD
BRANCH  12  15
ATOM     15  C   UNL d   1     -30.436  21.984  23.619  0.00  0.00     0.115 A 
ATOM     16  C   UNL d   1     -31.645  21.830  22.912  0.00  0.00     0.078 A 
ATOM     17  N   UNL d   1     -32.582  21.408  23.811  0.00  0.00    -0.242 N 
ATOM     18  C   UNL d   1     -31.992  22.021  21.568  0.00  0.00     0.033 A 
ATOM     19  N   UNL d   1     -31.966  21.309  25.064  0.00  0.00    -0.141 NA
ATOM     20  C   UNL d   1     -33.860  21.171  23.403  0.00  0.00     0.119 A 
ATOM     21  C   UNL d   1     -30.703  21.645  24.962  0.00  0.00     0.200 A 
ATOM     22  C   UNL d   1     -34.219  21.356  22.113  0.00  0.00     0.019 A 
ATOM     23  C   UNL d   1     -33.276  21.786  21.170  0.00  0.00     0.004 A 
BRANCH  21  24
ATOM     24  O   UNL d   1     -29.803  21.665  25.978  0.00  0.00    -0.343 OA
ATOM     25  H   UNL d   1     -29.344  20.826  26.114  0.00  0.00     0.219 HD
ENDBRANCH  21  24
ENDBRANCH  12  15
ENDBRANCH   1  11
BRANCH   6  26
ATOM     26  C   UNL d   1     -23.024  23.863  21.712  0.00  0.00    -0.017 A 
ATOM     27  C   UNL d   1     -21.893  23.748  22.516  0.00  0.00     0.049 A 
ATOM     28  C   UNL d   1     -20.676  24.229  22.063  0.00  0.00     0.079 A 
ATOM     29  C   UNL d   1     -20.587  24.834  20.816  0.00  0.00     0.037 A 
ATOM     30  C   UNL d   1     -21.712  24.952  20.021  0.00  0.00     0.004 A 
ATOM     31  C   UNL d   1     -22.928  24.470  20.461  0.00  0.00     0.012 A 
BRANCH  28  32
ATOM     32  O   UNL d   1     -19.568  24.116  22.842  0.00  0.00    -0.255 OA
BRANCH  32  33
ATOM     33  C   UNL d   1     -19.131  25.293  23.524  0.00  0.00     0.530 C 
ATOM     34  F   UNL d   1     -20.202  26.184  23.650  0.00  0.00    -0.144 F 
ATOM     35  F   UNL d   1     -18.660  24.947  24.795  0.00  0.00    -0.144 F 
ATOM     36  F   UNL d   1     -18.102  25.899  22.795  0.00  0.00    -0.144 F 
ENDBRANCH  32  33
ENDBRANCH  28  32
ENDBRANCH   6  26
TORSDOF 6
ENDMDL
