MODEL 1
REMARK VINA RESULT:      -8.3      0.000      0.000
REMARK  2 active torsions:
REMARK  status: ('A' for Active; 'I' for Inactive)
REMARK    1  A    between atoms: C_6  and  N_7 
REMARK    2  A    between atoms: N_7  and  C_8 
ROOT
ATOM      1  C   UNL d   1     -26.557  21.536  21.823  0.00  0.00     0.033 A 
ATOM      2  C   UNL d   1     -26.852  22.009  23.099  0.00  0.00     0.031 A 
ATOM      3  C   UNL d   1     -28.151  22.307  23.441  0.00  0.00     0.025 A 
ATOM      4  C   UNL d   1     -29.178  22.121  22.510  0.00  0.00     0.044 A 
ATOM      5  C   UNL d   1     -30.531  22.423  22.865  0.00  0.00     0.099 C 
ATOM      6  N   UNL d   1     -31.606  22.662  23.147  0.00  0.00    -0.191 NA
ATOM      7  C   UNL d   1     -28.879  21.640  21.232  0.00  0.00     0.025 A 
ATOM      8  C   UNL d   1     -27.576  21.350  20.894  0.00  0.00     0.031 A 
ENDROOT
BRANCH   1   9
ATOM      9  N   UNL d   1     -25.240  21.241  21.479  0.00  0.00    -0.340 N 
ATOM     10  H   UNL d   1     -24.847  20.395  21.744  0.00  0.00     0.167 HD
BRANCH   9  11
ATOM     11  C   UNL d   1     -24.495  22.153  20.753  0.00  0.00     0.145 A 
ATOM     12  N   UNL d   1     -24.539  22.343  19.418  0.00  0.00    -0.261 N 
ATOM     13  N   UNL d   1     -23.633  23.355  19.084  0.00  0.00    -0.177 NA
ATOM     14  H   UNL d   1     -25.104  21.858  18.794  0.00  0.00     0.191 HD
ATOM     15  C   UNL d   1     -23.047  23.781  20.168  0.00  0.00     0.075 A 
ATOM     16  C   UNL d   1     -22.005  24.866  20.239  0.00  0.00     0.074 C 
ATOM     17  C   UNL d   1     -23.564  23.053  21.264  0.00  0.00     0.115 A 
ATOM     18  C   UNL d   1     -23.196  23.209  22.639  0.00  0.00     0.105 C 
ATOM     19  N   UNL d   1     -22.904  23.333  23.730  0.00  0.00    -0.191 NA
ENDBRANCH   9  11
ENDBRANCH   1   9
TORSDOF 2
ENDMDL
