MODEL 1
REMARK VINA RESULT:      -8.6      0.000      0.000
REMARK  9 active torsions:
REMARK  status: ('A' for Active; 'I' for Inactive)
REMARK    1  A    between atoms: C_2  and  C_3 
REMARK    2  A    between atoms: N_5  and  C_6 
REMARK    3  A    between atoms: C_8  and  O_9 
REMARK    4  A    between atoms: O_9  and  C_10 
REMARK    5  A    between atoms: C_10  and  C_12 
REMARK    6  A    between atoms: C_18  and  C_19 
REMARK       I    between atoms: C_19  and  N_21 
REMARK    7  A    between atoms: N_21  and  C_22 
REMARK    8  A    between atoms: C_22  and  C_23 
REMARK    9  A    between atoms: C_22  and  C_25 
ROOT
ATOM      1  C   UNL d   1     -26.971  23.021  24.038  0.00  0.00     0.104 A 
ATOM      2  C   UNL d   1     -27.942  22.538  23.172  0.00  0.00     0.073 A 
ATOM      3  C   UNL d   1     -29.105  21.983  23.675  0.00  0.00     0.087 A 
ATOM      4  C   UNL d   1     -29.304  21.918  25.063  0.00  0.00     0.068 A 
ATOM      5  C   UNL d   1     -28.323  22.412  25.928  0.00  0.00     0.064 A 
ATOM      6  C   UNL d   1     -27.167  22.959  25.417  0.00  0.00     0.146 A 
ATOM      7  F   UNL d   1     -26.220  23.436  26.255  0.00  0.00    -0.204 F 
ENDROOT
BRANCH   1   8
ATOM      8  N   UNL d   1     -25.796  23.577  23.526  0.00  0.00    -0.178 N 
ATOM      9  N   UNL d   1     -25.338  24.885  23.731  0.00  0.00    -0.149 NA
ATOM     10  C   UNL d   1     -24.216  25.023  23.102  0.00  0.00     0.130 A 
ATOM     11  N   UNL d   1     -23.914  23.841  22.471  0.00  0.00    -0.289 N 
ATOM     12  C   UNL d   1     -24.892  22.954  22.742  0.00  0.00     0.351 A 
ATOM     13  C   UNL d   1     -22.728  23.585  21.649  0.00  0.00     0.162 C 
ATOM     14  O   UNL d   1     -24.951  21.802  22.348  0.00  0.00    -0.244 OA
BRANCH  10  15
ATOM     15  C   UNL d   1     -23.378  26.275  23.064  0.00  0.00     0.076 C 
ATOM     16  C   UNL d   1     -22.371  26.249  24.217  0.00  0.00     0.013 C 
ENDBRANCH  10  15
ENDBRANCH   1   8
BRANCH   3  17
ATOM     17  O   UNL d   1     -30.053  21.505  22.830  0.00  0.00    -0.341 OA
BRANCH  17  18
ATOM     18  C   UNL d   1     -30.761  22.463  22.041  0.00  0.00     0.158 C 
ATOM     19  C   UNL d   1     -30.159  22.512  20.635  0.00  0.00     0.045 C 
BRANCH  18  20
ATOM     20  C   UNL d   1     -32.212  22.067  21.953  0.00  0.00    -0.029 A 
ATOM     21  C   UNL d   1     -32.586  20.977  21.189  0.00  0.00     0.010 A 
ATOM     22  C   UNL d   1     -33.918  20.613  21.108  0.00  0.00     0.001 A 
ATOM     23  C   UNL d   1     -34.875  21.340  21.791  0.00  0.00     0.000 A 
ATOM     24  C   UNL d   1     -34.501  22.430  22.555  0.00  0.00     0.001 A 
ATOM     25  C   UNL d   1     -33.169  22.790  22.640  0.00  0.00     0.010 A 
ENDBRANCH  18  20
ENDBRANCH  17  18
ENDBRANCH   3  17
BRANCH   4  26
ATOM     26  C   UNL d   1     -30.542  21.333  25.606  0.00  0.00     0.254 C 
ATOM     27  O   UNL d   1     -31.188  21.942  26.438  0.00  0.00    -0.268 OA
ATOM     28  N   UNL d   1     -30.958  20.124  25.182  0.00  0.00    -0.352 N 
ATOM     29  H   UNL d   1     -30.443  19.638  24.520  0.00  0.00     0.163 HD
BRANCH  28  30
ATOM     30  C   UNL d   1     -32.189  19.543  25.724  0.00  0.00     0.084 C 
BRANCH  30  31
ATOM     31  C   UNL d   1     -33.309  19.665  24.688  0.00  0.00     0.021 C 
ATOM     32  C   UNL d   1     -34.604  20.088  25.385  0.00  0.00     0.007 C 
ENDBRANCH  30  31
BRANCH  30  33
ATOM     33  C   UNL d   1     -31.956  18.065  26.049  0.00  0.00     0.021 C 
ATOM     34  C   UNL d   1     -30.629  17.911  26.794  0.00  0.00     0.007 C 
ENDBRANCH  30  33
ENDBRANCH  28  30
ENDBRANCH   4  26
TORSDOF 9
ENDMDL
