MODEL 1
REMARK VINA RESULT:      -9.6      0.000      0.000
REMARK  9 active torsions:
REMARK  status: ('A' for Active; 'I' for Inactive)
REMARK    1  A    between atoms: C_2  and  C_3 
REMARK    2  A    between atoms: C_3  and  C_4 
REMARK    3  A    between atoms: C_4  and  O_6 
REMARK    4  A    between atoms: O_6  and  C_7 
REMARK    5  A    between atoms: C_9  and  N_10 
REMARK    6  A    between atoms: C_12  and  C_13 
REMARK    7  A    between atoms: C_22  and  C_23 
REMARK       I    between atoms: C_23  and  N_25 
REMARK    8  A    between atoms: N_25  and  C_26 
REMARK    9  A    between atoms: C_30  and  N_31 
ROOT
ATOM      1  C   UNL d   1     -26.298  23.181  23.291  0.00  0.00     0.087 A 
ATOM      2  C   UNL d   1     -27.663  23.023  23.462  0.00  0.00     0.073 A 
ATOM      3  C   UNL d   1     -28.382  22.211  22.596  0.00  0.00     0.104 A 
ATOM      4  C   UNL d   1     -27.735  21.550  21.552  0.00  0.00     0.146 A 
ATOM      5  F   UNL d   1     -28.442  20.762  20.713  0.00  0.00    -0.204 F 
ATOM      6  C   UNL d   1     -26.378  21.700  21.373  0.00  0.00     0.064 A 
ATOM      7  C   UNL d   1     -25.645  22.517  22.241  0.00  0.00     0.068 A 
ENDROOT
BRANCH   7   8
ATOM      8  C   UNL d   1     -24.194  22.680  22.054  0.00  0.00     0.259 C 
ATOM      9  O   UNL d   1     -23.494  21.707  21.846  0.00  0.00    -0.267 OA
ATOM     10  N   UNL d   1     -23.640  23.908  22.114  0.00  0.00    -0.322 N 
ATOM     11  H   UNL d   1     -24.205  24.691  22.209  0.00  0.00     0.169 HD
BRANCH  10  12
ATOM     12  C   UNL d   1     -22.249  24.053  22.038  0.00  0.00     0.047 A 
ATOM     13  C   UNL d   1     -21.657  24.455  20.848  0.00  0.00    -0.033 A 
ATOM     14  C   UNL d   1     -20.285  24.600  20.773  0.00  0.00     0.038 A 
ATOM     15  C   UNL d   1     -22.511  24.735  19.638  0.00  0.00     0.050 C 
ATOM     16  C   UNL d   1     -19.499  24.342  21.888  0.00  0.00     0.026 A 
ATOM     17  C   UNL d   1     -20.091  23.939  23.078  0.00  0.00     0.038 A 
ATOM     18  C   UNL d   1     -21.462  23.801  23.153  0.00  0.00    -0.033 A 
ATOM     19  C   UNL d   1     -22.105  23.370  24.447  0.00  0.00     0.050 C 
BRANCH  16  20
ATOM     20  N   UNL d   1     -18.110  24.488  21.812  0.00  0.00    -0.399 N 
ATOM     21  H   UNL d   1     -17.726  25.317  21.485  0.00  0.00     0.156 HD
ATOM     22  H   UNL d   1     -17.529  23.761  22.088  0.00  0.00     0.156 HD
ENDBRANCH  16  20
ENDBRANCH  10  12
ENDBRANCH   7   8
BRANCH   1  23
ATOM     23  O   UNL d   1     -25.594  23.975  24.137  0.00  0.00    -0.345 OA
BRANCH  23  24
ATOM     24  C   UNL d   1     -25.916  25.367  24.139  0.00  0.00     0.124 C 
ATOM     25  C   UNL d   1     -26.280  25.804  25.559  0.00  0.00     0.040 C 
BRANCH  24  26
ATOM     26  C   UNL d   1     -24.707  26.170  23.653  0.00  0.00     0.032 C 
BRANCH  26  27
ATOM     27  C   UNL d   1     -23.740  26.392  24.818  0.00  0.00    -0.002 C 
ATOM     28  C   UNL d   1     -22.472  27.077  24.305  0.00  0.00     0.005 C 
ENDBRANCH  26  27
ENDBRANCH  24  26
ENDBRANCH  23  24
ENDBRANCH   1  23
BRANCH   3  29
ATOM     29  N   UNL d   1     -29.758  22.054  22.772  0.00  0.00    -0.178 N 
ATOM     30  C   UNL d   1     -30.380  21.642  23.897  0.00  0.00     0.351 A 
ATOM     31  N   UNL d   1     -31.704  21.632  23.646  0.00  0.00    -0.289 N 
ATOM     32  O   UNL d   1     -29.843  21.339  24.947  0.00  0.00    -0.244 OA
ATOM     33  C   UNL d   1     -31.900  22.033  22.346  0.00  0.00     0.130 A 
ATOM     34  C   UNL d   1     -32.754  21.252  24.593  0.00  0.00     0.162 C 
ATOM     35  N   UNL d   1     -30.751  22.289  21.810  0.00  0.00    -0.149 NA
BRANCH  33  36
ATOM     36  C   UNL d   1     -33.236  22.155  21.658  0.00  0.00     0.076 C 
ATOM     37  C   UNL d   1     -33.701  20.774  21.197  0.00  0.00     0.013 C 
ENDBRANCH  33  36
ENDBRANCH   3  29
TORSDOF 9
ENDMDL
