MODEL 1
REMARK VINA RESULT:      -9.3      0.000      0.000
REMARK  6 active torsions:
REMARK  status: ('A' for Active; 'I' for Inactive)
REMARK    1  A    between atoms: C_2  and  O_3 
REMARK    2  A    between atoms: C_2  and  C_31 
REMARK    3  A    between atoms: O_3  and  C_4 
REMARK    4  A    between atoms: C_6  and  N_7 
REMARK    5  A    between atoms: C_20  and  C_21 
REMARK       I    between atoms: C_21  and  N_23 
REMARK    6  A    between atoms: N_23  and  C_24 
ROOT
ATOM      1  C   UNL d   1     -20.336  24.631  23.792  0.00  0.00     0.087 A 
ATOM      2  C   UNL d   1     -21.631  24.144  23.759  0.00  0.00     0.073 A 
ATOM      3  C   UNL d   1     -22.253  23.905  22.542  0.00  0.00     0.104 A 
ATOM      4  C   UNL d   1     -21.579  24.154  21.347  0.00  0.00     0.146 A 
ATOM      5  F   UNL d   1     -22.190  23.918  20.166  0.00  0.00    -0.204 F 
ATOM      6  C   UNL d   1     -20.290  24.638  21.368  0.00  0.00     0.064 A 
ATOM      7  C   UNL d   1     -19.657  24.887  22.591  0.00  0.00     0.068 A 
ENDROOT
BRANCH   7   8
ATOM      8  C   UNL d   1     -18.282  25.412  22.618  0.00  0.00     0.260 C 
ATOM      9  O   UNL d   1     -17.374  24.766  22.131  0.00  0.00    -0.267 OA
ATOM     10  N   UNL d   1     -18.029  26.609  23.183  0.00  0.00    -0.305 N 
ATOM     11  H   UNL d   1     -18.752  27.125  23.572  0.00  0.00     0.171 HD
BRANCH  10  12
ATOM     12  C   UNL d   1     -16.729  27.105  23.208  0.00  0.00     0.172 A 
ATOM     13  C   UNL d   1     -15.837  26.705  24.205  0.00  0.00     0.179 A 
ATOM     14  C   UNL d   1     -14.553  27.223  24.183  0.00  0.00     0.164 A 
ATOM     15  F   UNL d   1     -16.214  25.831  25.164  0.00  0.00    -0.201 F 
ATOM     16  N   UNL d   1     -14.220  28.083  23.231  0.00  0.00    -0.251 NA
ATOM     17  C   UNL d   1     -15.090  28.444  22.309  0.00  0.00     0.235 A 
ATOM     18  N   UNL d   1     -16.320  27.972  22.288  0.00  0.00    -0.221 NA
ENDBRANCH  10  12
ENDBRANCH   7   8
BRANCH   1  19
ATOM     19  O   UNL d   1     -19.727  24.865  24.982  0.00  0.00    -0.345 OA
BRANCH  19  20
ATOM     20  C   UNL d   1     -19.904  26.161  25.557  0.00  0.00     0.129 C 
ATOM     21  C   UNL d   1     -21.397  26.482  25.644  0.00  0.00     0.040 C 
BRANCH  20  22
ATOM     22  C   UNL d   1     -19.295  26.182  26.961  0.00  0.00     0.015 C 
ATOM     23  C   UNL d   1     -20.411  26.302  28.000  0.00  0.00     0.007 C 
ATOM     24  C   UNL d   1     -19.801  26.323  29.402  0.00  0.00     0.000 C 
ATOM     25  C   UNL d   1     -18.855  27.519  29.530  0.00  0.00     0.000 C 
ATOM     26  C   UNL d   1     -17.739  27.400  28.491  0.00  0.00     0.000 C 
ATOM     27  C   UNL d   1     -18.349  27.378  27.087  0.00  0.00     0.007 C 
ENDBRANCH  20  22
ENDBRANCH  19  20
ENDBRANCH   1  19
BRANCH   3  28
ATOM     28  N   UNL d   1     -23.561  23.413  22.513  0.00  0.00    -0.178 N 
ATOM     29  C   UNL d   1     -24.610  23.889  23.217  0.00  0.00     0.351 A 
ATOM     30  N   UNL d   1     -25.684  23.156  22.881  0.00  0.00    -0.284 N 
ATOM     31  O   UNL d   1     -24.587  24.813  24.011  0.00  0.00    -0.244 OA
ATOM     32  C   UNL d   1     -25.285  22.189  21.982  0.00  0.00     0.131 A 
ATOM     33  C   UNL d   1     -27.066  23.334  23.341  0.00  0.00     0.135 C 
ATOM     34  N   UNL d   1     -24.027  22.338  21.742  0.00  0.00    -0.149 NA
ATOM     35  C   UNL d   1     -26.212  21.139  21.413  0.00  0.00     0.081 C 
ATOM     36  C   UNL d   1     -27.655  21.618  21.619  0.00  0.00     0.009 C 
ATOM     37  C   UNL d   1     -27.840  22.037  23.081  0.00  0.00     0.021 C 
ENDBRANCH   3  28
TORSDOF 6
ENDMDL
