MODEL 1
REMARK VINA RESULT:     -12.1      0.000      0.000
REMARK  4 active torsions:
REMARK  status: ('A' for Active; 'I' for Inactive)
REMARK    1  A    between atoms: C_4  and  C_5 
REMARK    2  A    between atoms: C_5  and  O_7 
REMARK    3  A    between atoms: C_10  and  C_11 
REMARK    4  A    between atoms: C_14  and  C_15 
ROOT
ATOM      1  C   UNL d   1     -33.981  20.189  25.533  0.00  0.00     0.048 C 
ATOM      2  C   UNL d   1     -32.886  20.732  24.651  0.00  0.00    -0.059 A 
ATOM      3  C   UNL d   1     -33.179  21.118  23.356  0.00  0.00     0.027 A 
ATOM      4  C   UNL d   1     -32.178  21.626  22.530  0.00  0.00     0.069 A 
ATOM      5  C   UNL d   1     -30.859  21.734  23.024  0.00  0.00     0.102 A 
ATOM      6  N   UNL d   1     -29.705  22.167  22.487  0.00  0.00    -0.227 NA
ATOM      7  C   UNL d   1     -28.737  22.064  23.369  0.00  0.00     0.139 A 
ATOM      8  N   UNL d   1     -29.231  21.550  24.535  0.00  0.00    -0.338 N 
ATOM      9  H   UNL d   1     -28.728  21.373  25.346  0.00  0.00     0.167 HD
ATOM     10  C   UNL d   1     -30.582  21.331  24.343  0.00  0.00     0.064 A 
ATOM     11  C   UNL d   1     -31.599  20.834  25.144  0.00  0.00     0.038 A 
ENDROOT
BRANCH   7  12
ATOM     12  C   UNL d   1     -27.330  22.446  23.136  0.00  0.00     0.010 A 
ATOM     13  C   UNL d   1     -26.755  23.483  23.875  0.00  0.00     0.016 A 
ATOM     14  C   UNL d   1     -25.443  23.837  23.657  0.00  0.00     0.013 A 
ATOM     15  C   UNL d   1     -24.687  23.162  22.698  0.00  0.00    -0.023 A 
ATOM     16  C   UNL d   1     -25.260  22.127  21.960  0.00  0.00     0.013 A 
ATOM     17  C   UNL d   1     -26.570  21.766  22.180  0.00  0.00     0.016 A 
BRANCH  15  18
ATOM     18  C   UNL d   1     -23.274  23.545  22.466  0.00  0.00     0.016 A 
ATOM     19  C   UNL d   1     -22.884  24.067  21.232  0.00  0.00     0.165 A 
ATOM     20  C   UNL d   1     -21.563  24.428  21.023  0.00  0.00     0.155 A 
ATOM     21  F   UNL d   1     -23.793  24.226  20.246  0.00  0.00    -0.202 F 
ATOM     22  C   UNL d   1     -20.631  24.259  22.033  0.00  0.00     0.045 A 
ATOM     23  F   UNL d   1     -21.182  24.939  19.832  0.00  0.00    -0.203 F 
ATOM     24  C   UNL d   1     -21.014  23.736  23.256  0.00  0.00     0.004 A 
ATOM     25  C   UNL d   1     -22.328  23.378  23.476  0.00  0.00     0.015 A 
ENDBRANCH  15  18
ENDBRANCH   7  12
BRANCH   4  26
ATOM     26  C   UNL d   1     -32.492  22.041  21.154  0.00  0.00     0.178 C 
ATOM     27  O   UNL d   1     -33.647  22.230  20.824  0.00  0.00    -0.646 OA
BRANCH  26  28
ATOM     28  O   UNL d   1     -31.500  22.212  20.257  0.00  0.00    -0.773 OA
ATOM     29  H   UNL d   1     -31.709  22.029  19.331  0.00  0.00     0.167 HD
ENDBRANCH  26  28
ENDBRANCH   4  26
TORSDOF 4
ENDMDL
