MODEL 1
REMARK VINA RESULT:     -10.1      0.000      0.000
REMARK  6 active torsions:
REMARK  status: ('A' for Active; 'I' for Inactive)
REMARK    1  A    between atoms: C_2  and  C_4 
REMARK    2  A    between atoms: N_6  and  C_7 
REMARK    3  A    between atoms: C_20  and  N_21 
REMARK    4  A    between atoms: C_23  and  C_24 
REMARK    5  A    between atoms: C_24  and  O_25 
REMARK    6  A    between atoms: N_26  and  C_27 
ROOT
ATOM      1  C   UNL d   1     -25.702  24.082  23.609  0.00  0.00    -0.004 A 
ATOM      2  C   UNL d   1     -24.405  24.254  23.243  0.00  0.00     0.113 A 
ATOM      3  N   UNL d   1     -23.868  23.622  22.159  0.00  0.00    -0.288 N 
ATOM      4  C   UNL d   1     -24.583  22.788  21.382  0.00  0.00     0.263 A 
ATOM      5  O   UNL d   1     -24.062  22.245  20.424  0.00  0.00    -0.267 OA
ATOM      6  C   UNL d   1     -25.993  22.536  21.694  0.00  0.00     0.047 A 
ATOM      7  C   UNL d   1     -26.778  21.680  20.919  0.00  0.00     0.062 A 
ATOM      8  C   UNL d   1     -28.089  21.477  21.248  0.00  0.00     0.146 A 
ATOM      9  F   UNL d   1     -28.845  20.647  20.498  0.00  0.00    -0.204 F 
ATOM     10  C   UNL d   1     -28.654  22.117  22.354  0.00  0.00     0.103 A 
ATOM     11  C   UNL d   1     -27.897  22.975  23.134  0.00  0.00     0.048 A 
ATOM     12  C   UNL d   1     -26.559  23.188  22.814  0.00  0.00    -0.006 A 
ENDROOT
BRANCH  10  13
ATOM     13  N   UNL d   1     -29.997  21.894  22.673  0.00  0.00    -0.178 N 
ATOM     14  C   UNL d   1     -31.054  22.079  21.856  0.00  0.00     0.351 A 
ATOM     15  N   UNL d   1     -32.162  21.750  22.549  0.00  0.00    -0.283 N 
ATOM     16  O   UNL d   1     -31.015  22.472  20.704  0.00  0.00    -0.244 OA
ATOM     17  C   UNL d   1     -31.783  21.361  23.811  0.00  0.00     0.154 A 
ATOM     18  N   UNL d   1     -30.494  21.435  23.901  0.00  0.00    -0.147 NA
BRANCH  15  19
ATOM     19  C   UNL d   1     -33.537  21.804  22.046  0.00  0.00     0.131 C 
ATOM     20  C   UNL d   1     -33.960  20.413  21.569  0.00  0.00     0.027 C 
ENDBRANCH  15  19
BRANCH  17  21
ATOM     21  C   UNL d   1     -32.715  20.918  24.909  0.00  0.00     0.244 C 
BRANCH  21  22
ATOM     22  O   UNL d   1     -32.064  21.062  26.173  0.00  0.00    -0.393 OA
ATOM     23  H   UNL d   1     -31.103  21.143  26.114  0.00  0.00     0.209 HD
ENDBRANCH  21  22
ENDBRANCH  17  21
ENDBRANCH  10  13
BRANCH   1  24
ATOM     24  C   UNL d   1     -26.245  24.784  24.788  0.00  0.00    -0.059 C 
ATOM     25  C   UNL d   1     -26.085  26.097  24.910  0.00  0.00     0.019 C 
ATOM     26  C   UNL d   1     -26.981  24.012  25.852  0.00  0.00     0.048 C 
ENDBRANCH   1  24
BRANCH   3  27
ATOM     27  C   UNL d   1     -22.523  23.850  21.846  0.00  0.00     0.048 A 
ATOM     28  C   UNL d   1     -21.526  23.448  22.726  0.00  0.00    -0.035 A 
ATOM     29  C   UNL d   1     -20.200  23.673  22.414  0.00  0.00     0.009 A 
ATOM     30  C   UNL d   1     -21.892  22.767  24.020  0.00  0.00     0.050 C 
ATOM     31  C   UNL d   1     -19.863  24.298  21.227  0.00  0.00     0.001 A 
ATOM     32  C   UNL d   1     -20.854  24.699  20.349  0.00  0.00     0.002 A 
ATOM     33  C   UNL d   1     -22.182  24.471  20.652  0.00  0.00     0.030 A 
ENDBRANCH   3  27
TORSDOF 6
ENDMDL
