MODEL 1
REMARK VINA RESULT:      -9.4      0.000      0.000
REMARK  9 active torsions:
REMARK  status: ('A' for Active; 'I' for Inactive)
REMARK    1  A    between atoms: C_2  and  O_3 
REMARK    2  A    between atoms: O_3  and  C_4 
REMARK    3  A    between atoms: C_4  and  C_6 
REMARK    4  A    between atoms: C_6  and  C_7 
REMARK    5  A    between atoms: C_6  and  C_21 
REMARK    6  A    between atoms: N_8  and  C_9 
REMARK    7  A    between atoms: C_13  and  C_14 
REMARK    8  A    between atoms: C_21  and  O_23 
REMARK    9  A    between atoms: O_23  and  C_24 
ROOT
ATOM      1  C   UNL d   1     -29.174  22.031  23.645  0.00  0.00     0.115 C 
ATOM      2  N   UNL d   1     -28.278  22.960  23.633  0.00  0.00    -0.264 NA
ENDROOT
BRANCH   2   3
ATOM      3  C   UNL d   1     -27.039  22.713  23.094  0.00  0.00     0.057 A 
ATOM      4  C   UNL d   1     -25.955  23.516  23.436  0.00  0.00     0.043 A 
ATOM      5  C   UNL d   1     -24.702  23.256  22.890  0.00  0.00    -0.024 A 
ATOM      6  C   UNL d   1     -24.541  22.199  21.996  0.00  0.00     0.012 A 
ATOM      7  C   UNL d   1     -25.619  21.405  21.659  0.00  0.00     0.003 A 
ATOM      8  C   UNL d   1     -26.864  21.653  22.201  0.00  0.00     0.031 A 
BRANCH   5   9
ATOM      9  C   UNL d   1     -23.540  24.105  23.256  0.00  0.00    -0.026 A 
ATOM     10  C   UNL d   1     -23.683  25.489  23.332  0.00  0.00     0.012 A 
ATOM     11  C   UNL d   1     -22.601  26.273  23.672  0.00  0.00     0.001 A 
ATOM     12  C   UNL d   1     -21.375  25.689  23.938  0.00  0.00     0.000 A 
ATOM     13  C   UNL d   1     -21.228  24.315  23.865  0.00  0.00     0.001 A 
ATOM     14  C   UNL d   1     -22.306  23.521  23.530  0.00  0.00     0.012 A 
ENDBRANCH   5   9
ENDBRANCH   2   3
BRANCH   1  15
ATOM     15  C   UNL d   1     -30.533  22.302  24.236  0.00  0.00     0.225 C 
BRANCH  15  16
ATOM     16  C   UNL d   1     -31.581  22.188  23.161  0.00  0.00     0.277 C 
ATOM     17  O   UNL d   1     -31.265  22.267  21.997  0.00  0.00    -0.264 OA
BRANCH  16  18
ATOM     18  O   UNL d   1     -32.867  21.999  23.495  0.00  0.00    -0.321 OA
BRANCH  18  19
ATOM     19  C   UNL d   1     -33.786  21.666  22.420  0.00  0.00     0.174 C 
ATOM     20  C   UNL d   1     -33.980  20.150  22.365  0.00  0.00     0.034 C 
ENDBRANCH  18  19
ENDBRANCH  16  18
ENDBRANCH  15  16
BRANCH  15  21
ATOM     21  C   UNL d   1     -30.817  21.298  25.323  0.00  0.00     0.277 C 
ATOM     22  O   UNL d   1     -30.813  21.643  26.481  0.00  0.00    -0.264 OA
BRANCH  21  23
ATOM     23  O   UNL d   1     -31.074  20.019  25.006  0.00  0.00    -0.321 OA
BRANCH  23  24
ATOM     24  C   UNL d   1     -32.108  19.345  25.769  0.00  0.00     0.174 C 
ATOM     25  C   UNL d   1     -31.498  18.160  26.520  0.00  0.00     0.034 C 
ENDBRANCH  23  24
ENDBRANCH  21  23
ENDBRANCH  15  21
ENDBRANCH   1  15
TORSDOF 9
ENDMDL
