MODEL 1
REMARK VINA RESULT:      -8.5      0.000      0.000
REMARK  7 active torsions:
REMARK  status: ('A' for Active; 'I' for Inactive)
REMARK    1  A    between atoms: C_2  and  C_3 
REMARK       I    between atoms: C_3  and  N_5 
REMARK    2  A    between atoms: N_5  and  C_6 
REMARK    3  A    between atoms: C_9  and  N_10 
REMARK    4  A    between atoms: N_10  and  C_12 
REMARK    5  A    between atoms: C_12  and  C_13 
REMARK    6  A    between atoms: C_20  and  C_21 
REMARK    7  A    between atoms: C_21  and  O_23 
ROOT
ATOM      1  C   UNL d   1     -29.054  21.666  24.514  0.00  0.00     0.051 A 
ATOM      2  C   UNL d   1     -28.048  21.685  25.471  0.00  0.00     0.033 A 
ATOM      3  C   UNL d   1     -26.928  22.468  25.283  0.00  0.00     0.031 A 
ATOM      4  C   UNL d   1     -26.798  23.246  24.136  0.00  0.00     0.031 A 
ATOM      5  C   UNL d   1     -27.796  23.241  23.177  0.00  0.00     0.050 A 
ATOM      6  C   UNL d   1     -28.931  22.447  23.356  0.00  0.00     0.066 A 
ENDROOT
BRANCH   4   7
ATOM      7  N   UNL d   1     -25.658  24.037  23.955  0.00  0.00    -0.381 N 
ATOM      8  C   UNL d   1     -25.758  25.496  24.051  0.00  0.00     0.150 C 
BRANCH   7   9
ATOM      9  C   UNL d   1     -24.366  23.408  23.671  0.00  0.00     0.162 C 
BRANCH   9  10
ATOM     10  C   UNL d   1     -24.218  23.217  22.184  0.00  0.00    -0.023 A 
ATOM     11  C   UNL d   1     -23.505  24.131  21.429  0.00  0.00     0.124 A 
ATOM     12  N   UNL d   1     -23.368  23.967  20.127  0.00  0.00    -0.273 NA
ATOM     13  C   UNL d   1     -23.901  22.939  19.497  0.00  0.00     0.116 A 
ATOM     14  C   UNL d   1     -24.629  21.988  20.185  0.00  0.00     0.020 A 
ATOM     15  C   UNL d   1     -24.797  22.126  21.555  0.00  0.00     0.012 A 
ENDBRANCH   9  10
ENDBRANCH   7   9
ENDBRANCH   4   7
BRANCH   6  16
ATOM     16  C   UNL d   1     -29.995  22.433  22.336  0.00  0.00     0.178 C 
ATOM     17  O   UNL d   1     -29.720  22.210  21.174  0.00  0.00    -0.646 OA
BRANCH  16  18
ATOM     18  O   UNL d   1     -31.273  22.667  22.694  0.00  0.00    -0.773 OA
ATOM     19  H   UNL d   1     -31.509  23.581  22.905  0.00  0.00     0.167 HD
ENDBRANCH  16  18
ENDBRANCH   6  16
BRANCH   1  20
ATOM     20  N   UNL d   1     -30.185  20.873  24.705  0.00  0.00    -0.326 N 
ATOM     21  C   UNL d   1     -30.963  21.058  25.791  0.00  0.00     0.221 C 
ATOM     22  O   UNL d   1     -30.739  21.979  26.547  0.00  0.00    -0.273 OA
ATOM     23  H   UNL d   1     -30.412  20.187  24.057  0.00  0.00     0.169 HD
BRANCH  21  24
ATOM     24  C   UNL d   1     -32.112  20.121  26.062  0.00  0.00     0.098 C 
ATOM     25  C   UNL d   1     -31.570  18.720  26.354  0.00  0.00     0.014 C 
ENDBRANCH  21  24
ENDBRANCH   1  20
TORSDOF 7
ENDMDL
