MODEL 1
REMARK VINA RESULT:     -11.0      0.000      0.000
REMARK  7 active torsions:
REMARK  status: ('A' for Active; 'I' for Inactive)
REMARK    1  A    between atoms: C_2  and  O_3 
REMARK    2  A    between atoms: C_2  and  C_33 
REMARK    3  A    between atoms: O_3  and  C_4 
REMARK    4  A    between atoms: C_6  and  N_7 
REMARK    5  A    between atoms: C_20  and  C_21 
REMARK       I    between atoms: C_21  and  N_23 
REMARK    6  A    between atoms: N_23  and  C_24 
REMARK    7  A    between atoms: C_29  and  C_30 
ROOT
ATOM      1  C   UNL d   1     -24.687  23.364  22.654  0.00  0.00     0.087 A 
ATOM      2  C   UNL d   1     -25.945  22.815  22.837  0.00  0.00     0.073 A 
ATOM      3  C   UNL d   1     -26.800  23.342  23.795  0.00  0.00     0.104 A 
ATOM      4  C   UNL d   1     -26.399  24.427  24.574  0.00  0.00     0.146 A 
ATOM      5  F   UNL d   1     -27.238  24.939  25.501  0.00  0.00    -0.204 F 
ATOM      6  C   UNL d   1     -25.148  24.977  24.404  0.00  0.00     0.064 A 
ATOM      7  C   UNL d   1     -24.281  24.453  23.440  0.00  0.00     0.068 A 
ENDROOT
BRANCH   7   8
ATOM      8  C   UNL d   1     -22.943  25.042  23.250  0.00  0.00     0.259 C 
ATOM      9  O   UNL d   1     -22.820  26.086  22.638  0.00  0.00    -0.267 OA
ATOM     10  N   UNL d   1     -21.857  24.423  23.753  0.00  0.00    -0.322 N 
ATOM     11  H   UNL d   1     -21.944  23.550  24.167  0.00  0.00     0.169 HD
BRANCH  10  12
ATOM     12  C   UNL d   1     -20.605  25.040  23.679  0.00  0.00     0.046 A 
ATOM     13  C   UNL d   1     -20.201  25.916  24.679  0.00  0.00     0.032 A 
ATOM     14  C   UNL d   1     -18.963  26.524  24.604  0.00  0.00     0.015 A 
ATOM     15  C   UNL d   1     -18.126  26.261  23.536  0.00  0.00     0.001 A 
ATOM     16  C   UNL d   1     -18.525  25.390  22.538  0.00  0.00     0.002 A 
ATOM     17  C   UNL d   1     -19.759  24.775  22.611  0.00  0.00     0.030 A 
BRANCH  13  18
ATOM     18  C   UNL d   1     -21.112  26.203  25.845  0.00  0.00     0.389 C 
ATOM     19  F   UNL d   1     -20.357  26.282  27.019  0.00  0.00    -0.209 F 
ATOM     20  F   UNL d   1     -21.772  27.418  25.632  0.00  0.00    -0.209 F 
ENDBRANCH  13  18
ENDBRANCH  10  12
ENDBRANCH   7   8
BRANCH   1  21
ATOM     21  O   UNL d   1     -23.852  22.851  21.717  0.00  0.00    -0.336 OA
BRANCH  21  22
ATOM     22  C   UNL d   1     -23.929  23.408  20.404  0.00  0.00     0.232 C 
ATOM     23  C   UNL d   1     -22.531  23.823  19.942  0.00  0.00     0.049 C 
BRANCH  22  24
ATOM     24  C   UNL d   1     -24.496  22.364  19.439  0.00  0.00     0.413 C 
ATOM     25  F   UNL d   1     -25.766  21.969  19.872  0.00  0.00    -0.168 F 
ATOM     26  F   UNL d   1     -24.592  22.918  18.157  0.00  0.00    -0.168 F 
ATOM     27  F   UNL d   1     -23.648  21.253  19.404  0.00  0.00    -0.168 F 
ENDBRANCH  22  24
ENDBRANCH  21  22
ENDBRANCH   1  21
BRANCH   3  28
ATOM     28  N   UNL d   1     -28.068  22.787  23.976  0.00  0.00    -0.178 N 
ATOM     29  C   UNL d   1     -28.465  22.019  25.015  0.00  0.00     0.351 A 
ATOM     30  N   UNL d   1     -29.760  21.718  24.820  0.00  0.00    -0.284 N 
ATOM     31  O   UNL d   1     -27.776  21.664  25.954  0.00  0.00    -0.244 OA
ATOM     32  C   UNL d   1     -30.158  22.276  23.622  0.00  0.00     0.131 A 
ATOM     33  C   UNL d   1     -30.642  20.954  25.708  0.00  0.00     0.135 C 
ATOM     34  N   UNL d   1     -29.166  22.920  23.112  0.00  0.00    -0.149 NA
ATOM     35  C   UNL d   1     -31.547  22.118  23.045  0.00  0.00     0.081 C 
ATOM     36  C   UNL d   1     -32.484  21.673  24.176  0.00  0.00     0.009 C 
ATOM     37  C   UNL d   1     -31.856  20.478  24.902  0.00  0.00     0.021 C 
ENDBRANCH   3  28
TORSDOF 7
ENDMDL
