MODEL 1
REMARK VINA RESULT:     -11.0      0.000      0.000
REMARK  7 active torsions:
REMARK  status: ('A' for Active; 'I' for Inactive)
REMARK    1  A    between atoms: O_2  and  C_3 
REMARK    2  A    between atoms: C_7  and  N_8 
REMARK       I    between atoms: N_8  and  C_9 
REMARK    3  A    between atoms: C_9  and  C_11 
REMARK    4  A    between atoms: C_15  and  N_16 
REMARK    5  A    between atoms: C_27  and  O_28 
REMARK    6  A    between atoms: O_28  and  C_29 
REMARK    7  A    between atoms: C_29  and  C_31 
ROOT
ATOM      1  C   UNL d   1     -24.242  24.368  23.379  0.00  0.00     0.068 A 
ATOM      2  C   UNL d   1     -25.096  24.904  24.350  0.00  0.00     0.064 A 
ATOM      3  C   UNL d   1     -26.358  24.382  24.519  0.00  0.00     0.146 A 
ATOM      4  F   UNL d   1     -27.185  24.903  25.452  0.00  0.00    -0.204 F 
ATOM      5  C   UNL d   1     -26.785  23.311  23.732  0.00  0.00     0.104 A 
ATOM      6  C   UNL d   1     -25.944  22.774  22.768  0.00  0.00     0.073 A 
ATOM      7  C   UNL d   1     -24.675  23.296  22.585  0.00  0.00     0.087 A 
ENDROOT
BRANCH   1   8
ATOM      8  C   UNL d   1     -22.893  24.930  23.191  0.00  0.00     0.259 C 
ATOM      9  N   UNL d   1     -21.820  24.284  23.688  0.00  0.00    -0.321 N 
ATOM     10  H   UNL d   1     -21.928  23.419  24.113  0.00  0.00     0.169 HD
ATOM     11  O   UNL d   1     -22.748  25.976  22.588  0.00  0.00    -0.267 OA
BRANCH   9  12
ATOM     12  C   UNL d   1     -20.548  24.862  23.590  0.00  0.00     0.058 A 
ATOM     13  C   UNL d   1     -20.118  25.789  24.538  0.00  0.00    -0.030 A 
ATOM     14  C   UNL d   1     -18.851  26.329  24.405  0.00  0.00     0.067 A 
ATOM     15  C   UNL d   1     -21.010  26.189  25.685  0.00  0.00     0.050 C 
ATOM     16  C   UNL d   1     -18.059  25.942  23.332  0.00  0.00     0.164 A 
ATOM     17  N   UNL d   1     -18.500  25.063  22.448  0.00  0.00    -0.235 NA
ATOM     18  C   UNL d   1     -19.700  24.523  22.546  0.00  0.00     0.149 A 
BRANCH  16  19
ATOM     19  O   UNL d   1     -16.817  26.471  23.189  0.00  0.00    -0.339 OA
ATOM     20  C   UNL d   1     -15.892  25.743  22.380  0.00  0.00     0.211 C 
ENDBRANCH  16  19
ENDBRANCH   9  12
ENDBRANCH   1   8
BRANCH   7  21
ATOM     21  O   UNL d   1     -23.852  22.773  21.642  0.00  0.00    -0.336 OA
BRANCH  21  22
ATOM     22  C   UNL d   1     -23.903  23.359  20.340  0.00  0.00     0.232 C 
ATOM     23  C   UNL d   1     -22.493  23.755  19.902  0.00  0.00     0.049 C 
BRANCH  22  24
ATOM     24  C   UNL d   1     -24.480  22.346  19.347  0.00  0.00     0.413 C 
ATOM     25  F   UNL d   1     -23.642  21.229  19.280  0.00  0.00    -0.168 F 
ATOM     26  F   UNL d   1     -25.753  21.950  19.771  0.00  0.00    -0.168 F 
ATOM     27  F   UNL d   1     -24.573  22.936  18.081  0.00  0.00    -0.168 F 
ENDBRANCH  22  24
ENDBRANCH  21  22
ENDBRANCH   7  21
BRANCH   5  28
ATOM     28  N   UNL d   1     -28.065  22.782  23.911  0.00  0.00    -0.178 N 
ATOM     29  C   UNL d   1     -28.481  22.029  24.953  0.00  0.00     0.351 A 
ATOM     30  N   UNL d   1     -29.781  21.754  24.755  0.00  0.00    -0.284 N 
ATOM     31  O   UNL d   1     -27.801  21.664  25.896  0.00  0.00    -0.244 OA
ATOM     32  C   UNL d   1     -30.164  22.312  23.553  0.00  0.00     0.131 A 
ATOM     33  C   UNL d   1     -30.681  21.011  25.644  0.00  0.00     0.135 C 
ATOM     34  N   UNL d   1     -29.156  22.934  23.043  0.00  0.00    -0.149 NA
ATOM     35  C   UNL d   1     -31.553  22.181  22.972  0.00  0.00     0.081 C 
ATOM     36  C   UNL d   1     -32.503  21.760  24.102  0.00  0.00     0.009 C 
ATOM     37  C   UNL d   1     -31.902  20.557  24.836  0.00  0.00     0.021 C 
ENDBRANCH   5  28
TORSDOF 7
ENDMDL
