MODEL 1
REMARK VINA RESULT:      -9.8      0.000      0.000
REMARK  4 active torsions:
REMARK  status: ('A' for Active; 'I' for Inactive)
REMARK    1  A    between atoms: C_2  and  C_4 
REMARK    2  A    between atoms: C_8  and  N_9 
REMARK    3  A    between atoms: N_9  and  C_10 
REMARK    4  A    between atoms: C_13  and  C_14 
ROOT
ATOM      1  C   UNL d   1     -32.027  21.992  22.782  0.00  0.00     0.082 A 
ATOM      2  N   UNL d   1     -31.305  22.309  21.743  0.00  0.00    -0.176 NA
ATOM      3  N   UNL d   1     -29.966  22.421  22.130  0.00  0.00    -0.261 N 
ATOM      4  H   UNL d   1     -29.225  22.647  21.546  0.00  0.00     0.191 HD
ATOM      5  C   UNL d   1     -29.879  22.162  23.451  0.00  0.00     0.145 A 
ATOM      6  C   UNL d   1     -31.166  21.880  23.899  0.00  0.00     0.116 A 
ATOM      7  C   UNL d   1     -31.548  21.543  25.238  0.00  0.00     0.105 C 
ATOM      8  N   UNL d   1     -31.850  21.276  26.300  0.00  0.00    -0.191 NA
ENDROOT
BRANCH   1   9
ATOM      9  C   UNL d   1     -33.518  21.776  22.791  0.00  0.00     0.033 C 
ATOM     10  C   UNL d   1     -34.122  22.342  21.504  0.00  0.00     0.016 C 
ATOM     11  C   UNL d   1     -33.816  20.278  22.878  0.00  0.00     0.016 C 
ENDBRANCH   1   9
BRANCH   5  12
ATOM     12  N   UNL d   1     -28.727  22.171  24.216  0.00  0.00    -0.340 N 
ATOM     13  H   UNL d   1     -28.777  22.006  25.171  0.00  0.00     0.167 HD
BRANCH  12  14
ATOM     14  C   UNL d   1     -27.490  22.415  23.613  0.00  0.00     0.033 A 
ATOM     15  C   UNL d   1     -26.664  23.419  24.101  0.00  0.00     0.030 A 
ATOM     16  C   UNL d   1     -25.441  23.657  23.503  0.00  0.00     0.018 A 
ATOM     17  C   UNL d   1     -25.037  22.892  22.424  0.00  0.00     0.048 A 
ATOM     18  C   UNL d   1     -25.859  21.895  21.933  0.00  0.00     0.018 A 
ATOM     19  C   UNL d   1     -27.083  21.651  22.525  0.00  0.00     0.030 A 
BRANCH  17  20
ATOM     20  C   UNL d   1     -23.700  23.150  21.779  0.00  0.00     0.417 C 
ATOM     21  F   UNL d   1     -23.577  24.513  21.492  0.00  0.00    -0.166 F 
ATOM     22  F   UNL d   1     -22.678  22.763  22.652  0.00  0.00    -0.166 F 
ATOM     23  F   UNL d   1     -23.604  22.413  20.594  0.00  0.00    -0.166 F 
ENDBRANCH  17  20
ENDBRANCH  12  14
ENDBRANCH   5  12
TORSDOF 4
ENDMDL
