MODEL 1
REMARK VINA RESULT:      -9.3      0.000      0.000
REMARK  7 active torsions:
REMARK  status: ('A' for Active; 'I' for Inactive)
REMARK    1  A    between atoms: C_8  and  N_9 
REMARK       I    between atoms: N_9  and  C_10 
REMARK    2  A    between atoms: C_10  and  C_12 
REMARK    3  A    between atoms: C_16  and  N_17 
REMARK    4  A    between atoms: C_28  and  O_29 
REMARK    5  A    between atoms: O_29  and  C_30 
REMARK    6  A    between atoms: C_30  and  C_32 
REMARK    7  A    between atoms: C_32  and  N_33 
ROOT
ATOM      1  C   UNL d   1     -25.732  22.598  22.197  0.00  0.00     0.068 A 
ATOM      2  C   UNL d   1     -26.335  21.664  21.348  0.00  0.00     0.064 A 
ATOM      3  C   UNL d   1     -27.702  21.498  21.372  0.00  0.00     0.146 A 
ATOM      4  F   UNL d   1     -28.285  20.597  20.550  0.00  0.00    -0.204 F 
ATOM      5  C   UNL d   1     -28.487  22.257  22.239  0.00  0.00     0.104 A 
ATOM      6  C   UNL d   1     -27.896  23.189  23.081  0.00  0.00     0.073 A 
ATOM      7  C   UNL d   1     -26.521  23.360  23.069  0.00  0.00     0.087 A 
ENDROOT
BRANCH   1   8
ATOM      8  C   UNL d   1     -24.270  22.779  22.175  0.00  0.00     0.259 C 
ATOM      9  N   UNL d   1     -23.745  24.017  22.086  0.00  0.00    -0.322 N 
ATOM     10  H   UNL d   1     -24.328  24.782  21.956  0.00  0.00     0.169 HD
ATOM     11  O   UNL d   1     -23.536  21.810  22.236  0.00  0.00    -0.267 OA
BRANCH   9  12
ATOM     12  C   UNL d   1     -22.361  24.199  22.185  0.00  0.00     0.041 A 
ATOM     13  C   UNL d   1     -21.594  24.324  21.034  0.00  0.00    -0.032 A 
ATOM     14  C   UNL d   1     -22.250  24.265  19.679  0.00  0.00     0.050 C 
ATOM     15  C   UNL d   1     -20.228  24.508  21.132  0.00  0.00     0.051 A 
ATOM     16  C   UNL d   1     -19.623  24.556  22.378  0.00  0.00     0.117 A 
ATOM     17  F   UNL d   1     -18.287  24.731  22.472  0.00  0.00    -0.206 F 
ATOM     18  C   UNL d   1     -20.386  24.427  23.526  0.00  0.00     0.044 A 
ATOM     19  C   UNL d   1     -21.752  24.248  23.432  0.00  0.00     0.033 A 
ENDBRANCH   9  12
ENDBRANCH   1   8
BRANCH   7  20
ATOM     20  O   UNL d   1     -25.943  24.268  23.896  0.00  0.00    -0.343 OA
BRANCH  20  21
ATOM     21  C   UNL d   1     -26.198  24.129  25.295  0.00  0.00     0.153 C 
ATOM     22  C   UNL d   1     -26.722  25.453  25.853  0.00  0.00     0.042 C 
BRANCH  21  23
ATOM     23  C   UNL d   1     -27.243  23.033  25.514  0.00  0.00     0.303 C 
BRANCH  23  24
ATOM     24  N   UNL d   1     -27.266  22.655  26.934  0.00  0.00     0.082 N 
ATOM     25  C   UNL d   1     -28.611  22.820  27.501  0.00  0.00     0.309 C 
ATOM     26  C   UNL d   1     -26.783  21.280  27.120  0.00  0.00     0.309 C 
ENDBRANCH  23  24
ENDBRANCH  21  23
ENDBRANCH  20  21
ENDBRANCH   7  20
BRANCH   5  27
ATOM     27  N   UNL d   1     -29.872  22.084  22.258  0.00  0.00    -0.178 N 
ATOM     28  C   UNL d   1     -30.624  21.765  23.333  0.00  0.00     0.351 A 
ATOM     29  N   UNL d   1     -31.905  21.726  22.930  0.00  0.00    -0.284 N 
ATOM     30  O   UNL d   1     -30.217  21.553  24.461  0.00  0.00    -0.244 OA
ATOM     31  C   UNL d   1     -31.941  21.984  21.575  0.00  0.00     0.131 A 
ATOM     32  C   UNL d   1     -33.094  21.478  23.753  0.00  0.00     0.135 C 
ATOM     33  N   UNL d   1     -30.740  22.206  21.162  0.00  0.00    -0.149 NA
ATOM     34  C   UNL d   1     -33.211  21.987  20.755  0.00  0.00     0.081 C 
ATOM     35  C   UNL d   1     -34.398  22.118  21.719  0.00  0.00     0.009 C 
ATOM     36  C   UNL d   1     -34.253  21.078  22.834  0.00  0.00     0.021 C 
ENDBRANCH   5  27
TORSDOF 7
ENDMDL
