MODEL 1
REMARK VINA RESULT:     -12.9      0.000      0.000
REMARK  7 active torsions:
REMARK  status: ('A' for Active; 'I' for Inactive)
REMARK    1  A    between atoms: C_3  and  C_4 
REMARK       I    between atoms: C_4  and  N_6 
REMARK    2  A    between atoms: N_6  and  C_7 
REMARK    3  A    between atoms: C_11  and  C_12 
REMARK    4  A    between atoms: C_26  and  O_27 
REMARK    5  A    between atoms: O_27  and  C_28 
REMARK    6  A    between atoms: C_34  and  C_35 
REMARK    7  A    between atoms: C_35  and  O_37 
ROOT
ATOM      1  C   UNL d   1     -28.093  22.040  26.222  0.00  0.00     0.052 C 
ATOM      2  C   UNL d   1     -28.734  22.176  24.866  0.00  0.00    -0.010 A 
ATOM      3  C   UNL d   1     -28.019  22.736  23.798  0.00  0.00     0.132 A 
ATOM      4  N   UNL d   1     -28.542  22.879  22.597  0.00  0.00    -0.242 NA
ATOM      5  C   UNL d   1     -29.782  22.493  22.309  0.00  0.00     0.069 A 
ATOM      6  C   UNL d   1     -30.308  22.657  21.011  0.00  0.00     0.035 A 
ATOM      7  C   UNL d   1     -31.578  22.259  20.742  0.00  0.00     0.039 A 
ATOM      8  C   UNL d   1     -32.383  21.688  21.734  0.00  0.00     0.079 A 
ATOM      9  C   UNL d   1     -31.900  21.513  23.014  0.00  0.00     0.052 A 
ATOM     10  C   UNL d   1     -30.597  21.913  23.317  0.00  0.00     0.013 A 
ATOM     11  C   UNL d   1     -30.040  21.748  24.661  0.00  0.00     0.058 A 
ENDROOT
BRANCH   3  12
ATOM     12  C   UNL d   1     -26.628  23.188  24.028  0.00  0.00     0.275 C 
ATOM     13  O   UNL d   1     -26.084  22.961  25.091  0.00  0.00    -0.266 OA
ATOM     14  N   UNL d   1     -25.964  23.850  23.060  0.00  0.00    -0.317 N 
ATOM     15  H   UNL d   1     -26.424  24.105  22.245  0.00  0.00     0.169 HD
BRANCH  14  16
ATOM     16  C   UNL d   1     -24.613  24.170  23.231  0.00  0.00     0.113 A 
ATOM     17  C   UNL d   1     -23.634  23.215  22.978  0.00  0.00     0.147 A 
ATOM     18  C   UNL d   1     -22.300  23.531  23.141  0.00  0.00     0.057 A 
ATOM     19  F   UNL d   1     -23.989  21.978  22.568  0.00  0.00    -0.204 F 
ATOM     20  C   UNL d   1     -21.935  24.807  23.570  0.00  0.00    -0.020 A 
ATOM     21  C   UNL d   1     -22.917  25.763  23.822  0.00  0.00     0.057 A 
ATOM     22  C   UNL d   1     -24.250  25.445  23.653  0.00  0.00     0.147 A 
ATOM     23  F   UNL d   1     -25.201  26.372  23.899  0.00  0.00    -0.204 F 
BRANCH  20  24
ATOM     24  C   UNL d   1     -20.502  25.147  23.750  0.00  0.00    -0.023 A 
ATOM     25  C   UNL d   1     -19.593  24.905  22.723  0.00  0.00     0.054 A 
ATOM     26  C   UNL d   1     -18.259  25.224  22.897  0.00  0.00     0.117 A 
ATOM     27  C   UNL d   1     -17.828  25.788  24.086  0.00  0.00     0.042 A 
ATOM     28  F   UNL d   1     -17.374  24.989  21.901  0.00  0.00    -0.206 F 
ATOM     29  C   UNL d   1     -18.727  26.024  25.110  0.00  0.00     0.004 A 
ATOM     30  C   UNL d   1     -20.061  25.710  24.948  0.00  0.00     0.012 A 
ENDBRANCH  20  24
ENDBRANCH  14  16
ENDBRANCH   3  12
BRANCH  11  31
ATOM     31  C   UNL d   1     -30.834  21.153  25.754  0.00  0.00     0.177 C 
ATOM     32  O   UNL d   1     -31.610  21.841  26.387  0.00  0.00    -0.646 OA
BRANCH  31  33
ATOM     33  O   UNL d   1     -30.699  19.845  26.049  0.00  0.00    -0.773 OA
ATOM     34  H   UNL d   1     -31.263  19.225  25.566  0.00  0.00     0.167 HD
ENDBRANCH  31  33
ENDBRANCH  11  31
BRANCH   8  35
ATOM     35  O   UNL d   1     -33.650  21.300  21.434  0.00  0.00    -0.255 OA
BRANCH  35  36
ATOM     36  C   UNL d   1     -33.969  19.922  21.632  0.00  0.00     0.530 C 
ATOM     37  F   UNL d   1     -33.353  19.462  22.801  0.00  0.00    -0.144 F 
ATOM     38  F   UNL d   1     -35.356  19.777  21.747  0.00  0.00    -0.144 F 
ATOM     39  F   UNL d   1     -33.511  19.176  20.540  0.00  0.00    -0.144 F 
ENDBRANCH  35  36
ENDBRANCH   8  35
TORSDOF 7
ENDMDL
