MODEL 1
REMARK VINA RESULT:      -9.5      0.000      0.000
REMARK  9 active torsions:
REMARK  status: ('A' for Active; 'I' for Inactive)
REMARK    1  A    between atoms: C_2  and  O_3 
REMARK    2  A    between atoms: O_3  and  C_4 
REMARK    3  A    between atoms: C_4  and  C_6 
REMARK    4  A    between atoms: C_6  and  C_7 
REMARK    5  A    between atoms: C_6  and  C_21 
REMARK    6  A    between atoms: N_8  and  C_9 
REMARK    7  A    between atoms: C_13  and  C_14 
REMARK    8  A    between atoms: C_21  and  O_23 
REMARK    9  A    between atoms: O_23  and  C_24 
ROOT
ATOM      1  C   UNL d   1     -29.108  21.615  23.936  0.00  0.00     0.112 C 
ATOM      2  N   UNL d   1     -28.366  22.733  23.780  0.00  0.00    -0.365 N 
ATOM      3  H   UNL d   1     -28.714  23.590  24.071  0.00  0.00     0.165 HD
ENDROOT
BRANCH   2   4
ATOM      4  C   UNL d   1     -27.097  22.654  23.197  0.00  0.00     0.032 A 
ATOM      5  C   UNL d   1     -26.113  23.563  23.553  0.00  0.00     0.041 A 
ATOM      6  C   UNL d   1     -24.849  23.477  22.975  0.00  0.00    -0.024 A 
ATOM      7  C   UNL d   1     -24.584  22.485  22.033  0.00  0.00     0.012 A 
ATOM      8  C   UNL d   1     -25.570  21.583  21.684  0.00  0.00     0.003 A 
ATOM      9  C   UNL d   1     -26.822  21.663  22.261  0.00  0.00     0.029 A 
BRANCH   6  10
ATOM     10  C   UNL d   1     -23.790  24.444  23.355  0.00  0.00    -0.026 A 
ATOM     11  C   UNL d   1     -24.086  25.802  23.455  0.00  0.00     0.012 A 
ATOM     12  C   UNL d   1     -23.096  26.696  23.809  0.00  0.00     0.001 A 
ATOM     13  C   UNL d   1     -21.812  26.247  24.064  0.00  0.00     0.000 A 
ATOM     14  C   UNL d   1     -21.514  24.901  23.966  0.00  0.00     0.001 A 
ATOM     15  C   UNL d   1     -22.497  23.996  23.619  0.00  0.00     0.012 A 
ENDBRANCH   6  10
ENDBRANCH   2   4
BRANCH   1  16
ATOM     16  C   UNL d   1     -30.307  21.673  24.619  0.00  0.00     0.129 C 
BRANCH  16  17
ATOM     17  C   UNL d   1     -30.349  21.368  26.053  0.00  0.00     0.300 C 
ATOM     18  O   UNL d   1     -29.595  21.939  26.818  0.00  0.00    -0.259 OA
BRANCH  17  19
ATOM     19  O   UNL d   1     -31.221  20.454  26.523  0.00  0.00    -0.318 OA
BRANCH  19  20
ATOM     20  C   UNL d   1     -30.806  19.063  26.480  0.00  0.00     0.174 C 
ATOM     21  C   UNL d   1     -32.043  18.163  26.442  0.00  0.00     0.034 C 
ENDBRANCH  19  20
ENDBRANCH  17  19
ENDBRANCH  16  17
BRANCH  16  22
ATOM     22  C   UNL d   1     -31.538  22.039  23.912  0.00  0.00     0.300 C 
ATOM     23  O   UNL d   1     -31.490  22.797  22.962  0.00  0.00    -0.259 OA
BRANCH  22  24
ATOM     24  O   UNL d   1     -32.722  21.536  24.313  0.00  0.00    -0.318 OA
BRANCH  24  25
ATOM     25  C   UNL d   1     -33.172  20.316  23.668  0.00  0.00     0.174 C 
ATOM     26  C   UNL d   1     -33.983  20.668  22.419  0.00  0.00     0.034 C 
ENDBRANCH  24  25
ENDBRANCH  22  24
ENDBRANCH  16  22
ENDBRANCH   1  16
TORSDOF 9
ENDMDL
