MODEL 1
REMARK VINA RESULT:      -9.2      0.000      0.000
REMARK  4 active torsions:
REMARK  status: ('A' for Active; 'I' for Inactive)
REMARK    1  A    between atoms: C_5  and  N_6 
REMARK    2  A    between atoms: N_6  and  C_7 
REMARK    3  A    between atoms: C_8  and  C_9 
REMARK       I    between atoms: C_9  and  N_11 
REMARK    4  A    between atoms: N_11  and  C_12 
ROOT
ATOM      1  C   UNL d   1     -29.839  21.952  24.414  0.00  0.00     0.090 A 
ATOM      2  C   UNL d   1     -31.093  21.405  24.654  0.00  0.00     0.112 A 
ATOM      3  C   UNL d   1     -31.295  20.722  25.845  0.00  0.00     0.177 A 
ATOM      4  O   UNL d   1     -32.351  20.206  26.155  0.00  0.00    -0.291 OA
ATOM      5  C   UNL d   1     -30.058  20.691  26.709  0.00  0.00     0.165 A 
ATOM      6  S   UNL d   1     -28.813  21.606  25.748  0.00  0.00    -0.103 SA
ENDROOT
BRANCH   1   7
ATOM      7  N   UNL d   1     -29.480  22.650  23.298  0.00  0.00    -0.350 N 
ATOM      8  H   UNL d   1     -30.072  23.330  22.941  0.00  0.00     0.166 HD
BRANCH   7   9
ATOM      9  C   UNL d   1     -28.258  22.385  22.671  0.00  0.00     0.033 A 
ATOM     10  C   UNL d   1     -28.222  21.619  21.513  0.00  0.00     0.030 A 
ATOM     11  C   UNL d   1     -27.013  21.364  20.894  0.00  0.00     0.009 A 
ATOM     12  C   UNL d   1     -25.841  21.863  21.431  0.00  0.00    -0.056 A 
ATOM     13  C   UNL d   1     -24.524  21.577  20.756  0.00  0.00     0.049 C 
ATOM     14  C   UNL d   1     -25.874  22.622  22.586  0.00  0.00    -0.054 A 
ATOM     15  C   UNL d   1     -27.079  22.885  23.207  0.00  0.00     0.036 A 
ATOM     16  C   UNL d   1     -24.593  23.164  23.167  0.00  0.00     0.049 C 
ENDBRANCH   7   9
ENDBRANCH   1   7
BRANCH   2  17
ATOM     17  C   UNL d   1     -32.175  21.547  23.677  0.00  0.00     0.258 C 
ATOM     18  O   UNL d   1     -32.308  22.590  23.064  0.00  0.00    -0.267 OA
ATOM     19  N   UNL d   1     -33.021  20.521  23.455  0.00  0.00    -0.352 N 
ATOM     20  H   UNL d   1     -32.961  19.718  23.994  0.00  0.00     0.163 HD
BRANCH  19  21
ATOM     21  C   UNL d   1     -34.032  20.620  22.398  0.00  0.00     0.084 A 
ATOM     22  C   UNL d   1     -33.543  20.919  20.980  0.00  0.00     0.027 A 
ATOM     23  C   UNL d   1     -34.052  19.521  21.336  0.00  0.00     0.027 A 
ENDBRANCH  19  21
ENDBRANCH   2  17
TORSDOF 4
ENDMDL
