MODEL 1
REMARK VINA RESULT:     -12.1      0.000      0.000
REMARK  4 active torsions:
REMARK  status: ('A' for Active; 'I' for Inactive)
REMARK    1  A    between atoms: C_4  and  C_5 
REMARK    2  A    between atoms: C_5  and  O_7 
REMARK    3  A    between atoms: C_11  and  C_12 
REMARK    4  A    between atoms: C_15  and  C_16 
ROOT
ATOM      1  C   UNL d   1     -34.071  21.612  22.204  0.00  0.00     0.048 C 
ATOM      2  C   UNL d   1     -32.692  21.658  22.811  0.00  0.00    -0.059 A 
ATOM      3  C   UNL d   1     -32.502  21.231  24.112  0.00  0.00     0.027 A 
ATOM      4  C   UNL d   1     -31.233  21.268  24.687  0.00  0.00     0.067 A 
ATOM      5  C   UNL d   1     -30.147  21.741  23.935  0.00  0.00     0.080 A 
ATOM      6  N   UNL d   1     -28.805  21.897  24.193  0.00  0.00    -0.338 N 
ATOM      7  H   UNL d   1     -28.350  21.683  25.022  0.00  0.00     0.167 HD
ATOM      8  C   UNL d   1     -28.232  22.416  23.061  0.00  0.00     0.139 A 
ATOM      9  N   UNL d   1     -29.146  22.572  22.134  0.00  0.00    -0.228 NA
ATOM     10  C   UNL d   1     -30.349  22.173  22.614  0.00  0.00     0.087 A 
ATOM     11  C   UNL d   1     -31.633  22.125  22.062  0.00  0.00     0.040 A 
ENDROOT
BRANCH   8  12
ATOM     12  C   UNL d   1     -26.799  22.743  22.908  0.00  0.00     0.010 A 
ATOM     13  C   UNL d   1     -26.239  23.791  23.641  0.00  0.00     0.016 A 
ATOM     14  C   UNL d   1     -24.903  24.092  23.500  0.00  0.00     0.013 A 
ATOM     15  C   UNL d   1     -24.110  23.357  22.618  0.00  0.00    -0.023 A 
ATOM     16  C   UNL d   1     -24.669  22.309  21.886  0.00  0.00     0.013 A 
ATOM     17  C   UNL d   1     -26.004  22.003  22.029  0.00  0.00     0.016 A 
BRANCH  15  18
ATOM     18  C   UNL d   1     -22.674  23.685  22.463  0.00  0.00     0.013 A 
ATOM     19  C   UNL d   1     -22.204  24.217  21.260  0.00  0.00     0.130 A 
ATOM     20  C   UNL d   1     -20.862  24.521  21.122  0.00  0.00     0.085 A 
ATOM     21  F   UNL d   1     -23.056  24.433  20.235  0.00  0.00    -0.205 F 
ATOM     22  C   UNL d   1     -19.988  24.301  22.172  0.00  0.00     0.119 A 
ATOM     23  C   UNL d   1     -20.452  23.774  23.367  0.00  0.00     0.043 A 
ATOM     24  F   UNL d   1     -18.677  24.600  22.032  0.00  0.00    -0.206 F 
ATOM     25  C   UNL d   1     -21.787  23.460  23.515  0.00  0.00     0.018 A 
ENDBRANCH  15  18
ENDBRANCH   8  12
BRANCH   4  26
ATOM     26  C   UNL d   1     -31.032  20.813  26.075  0.00  0.00     0.178 C 
ATOM     27  O   UNL d   1     -30.399  21.497  26.853  0.00  0.00    -0.646 OA
BRANCH  26  28
ATOM     28  O   UNL d   1     -31.551  19.638  26.480  0.00  0.00    -0.773 OA
ATOM     29  H   UNL d   1     -32.205  19.223  25.900  0.00  0.00     0.167 HD
ENDBRANCH  26  28
ENDBRANCH   4  26
TORSDOF 4
ENDMDL
