MODEL 1
REMARK VINA RESULT:     -10.3      0.000      0.000
REMARK  7 active torsions:
REMARK  status: ('A' for Active; 'I' for Inactive)
REMARK    1  A    between atoms: C_8  and  N_9 
REMARK       I    between atoms: N_9  and  C_10 
REMARK    2  A    between atoms: C_10  and  C_12 
REMARK    3  A    between atoms: C_16  and  N_17 
REMARK    4  A    between atoms: C_19  and  C_20 
REMARK    5  A    between atoms: C_28  and  O_29 
REMARK    6  A    between atoms: O_29  and  C_30 
REMARK    7  A    between atoms: C_30  and  C_32 
ROOT
ATOM      1  C   UNL d   1     -24.204  24.435  23.382  0.00  0.00     0.068 A 
ATOM      2  C   UNL d   1     -25.097  24.921  24.344  0.00  0.00     0.064 A 
ATOM      3  C   UNL d   1     -26.336  24.341  24.486  0.00  0.00     0.146 A 
ATOM      4  F   UNL d   1     -27.197  24.812  25.415  0.00  0.00    -0.204 F 
ATOM      5  C   UNL d   1     -26.707  23.270  23.674  0.00  0.00     0.104 A 
ATOM      6  C   UNL d   1     -25.828  22.781  22.717  0.00  0.00     0.073 A 
ATOM      7  C   UNL d   1     -24.581  23.362  22.562  0.00  0.00     0.087 A 
ENDROOT
BRANCH   1   8
ATOM      8  C   UNL d   1     -22.875  25.053  23.227  0.00  0.00     0.259 C 
ATOM      9  N   UNL d   1     -21.804  24.508  23.836  0.00  0.00    -0.320 N 
ATOM     10  H   UNL d   1     -21.890  23.665  24.308  0.00  0.00     0.169 HD
ATOM     11  O   UNL d   1     -22.747  26.055  22.549  0.00  0.00    -0.267 OA
BRANCH   9  12
ATOM     12  C   UNL d   1     -20.566  25.159  23.787  0.00  0.00     0.080 A 
ATOM     13  C   UNL d   1     -20.260  26.143  24.719  0.00  0.00    -0.032 A 
ATOM     14  C   UNL d   1     -21.261  26.511  25.783  0.00  0.00     0.050 C 
ATOM     15  C   UNL d   1     -19.034  26.778  24.671  0.00  0.00     0.009 A 
ATOM     16  C   UNL d   1     -18.117  26.447  23.692  0.00  0.00     0.004 A 
ATOM     17  C   UNL d   1     -18.418  25.469  22.761  0.00  0.00     0.045 A 
ATOM     18  C   UNL d   1     -19.639  24.824  22.806  0.00  0.00     0.143 A 
ATOM     19  F   UNL d   1     -19.933  23.867  21.898  0.00  0.00    -0.204 F 
ENDBRANCH   9  12
ENDBRANCH   1   8
BRANCH   7  20
ATOM     20  O   UNL d   1     -23.723  22.888  21.622  0.00  0.00    -0.336 OA
BRANCH  20  21
ATOM     21  C   UNL d   1     -23.833  23.436  20.307  0.00  0.00     0.232 C 
ATOM     22  C   UNL d   1     -22.445  23.843  19.807  0.00  0.00     0.049 C 
BRANCH  21  23
ATOM     23  C   UNL d   1     -24.428  22.388  19.366  0.00  0.00     0.413 C 
ATOM     24  F   UNL d   1     -24.519  22.917  18.075  0.00  0.00    -0.168 F 
ATOM     25  F   UNL d   1     -23.605  21.256  19.350  0.00  0.00    -0.168 F 
ATOM     26  F   UNL d   1     -25.704  22.029  19.815  0.00  0.00    -0.168 F 
ENDBRANCH  21  23
ENDBRANCH  20  21
ENDBRANCH   7  20
BRANCH   5  27
ATOM     27  N   UNL d   1     -27.967  22.686  23.823  0.00  0.00    -0.178 N 
ATOM     28  C   UNL d   1     -28.419  22.025  24.910  0.00  0.00     0.351 A 
ATOM     29  N   UNL d   1     -29.679  21.626  24.644  0.00  0.00    -0.288 N 
ATOM     30  O   UNL d   1     -27.803  21.828  25.942  0.00  0.00    -0.244 OA
ATOM     31  C   UNL d   1     -30.003  22.037  23.375  0.00  0.00     0.134 A 
ATOM     32  C   UNL d   1     -30.550  20.875  25.552  0.00  0.00     0.162 C 
ATOM     33  N   UNL d   1     -28.994  22.671  22.870  0.00  0.00    -0.149 NA
BRANCH  31  34
ATOM     34  C   UNL d   1     -31.319  21.790  22.683  0.00  0.00     0.049 C 
ATOM     35  C   UNL d   1     -32.423  22.579  23.391  0.00  0.00     0.018 C 
ATOM     36  C   UNL d   1     -31.223  22.246  21.225  0.00  0.00     0.018 C 
ENDBRANCH  31  34
ENDBRANCH   5  27
TORSDOF 7
ENDMDL
