MODEL 1
REMARK VINA RESULT:      -9.4      0.000      0.000
REMARK  5 active torsions:
REMARK  status: ('A' for Active; 'I' for Inactive)
REMARK    1  A    between atoms: C_7  and  N_8 
REMARK    2  A    between atoms: C_10  and  C_11 
REMARK    3  A    between atoms: C_16  and  C_17 
REMARK    4  A    between atoms: C_21  and  C_22 
REMARK    5  A    between atoms: C_22  and  O_24 
ROOT
ATOM      1  N   UNL d   1     -23.914  23.544  22.497  0.00  0.00    -0.196 N 
ATOM      2  N   UNL d   1     -24.614  24.252  23.475  0.00  0.00    -0.168 NA
ATOM      3  C   UNL d   1     -25.897  24.135  23.641  0.00  0.00     0.070 A 
ATOM      4  C   UNL d   1     -26.665  23.223  22.792  0.00  0.00     0.007 A 
ATOM      5  C   UNL d   1     -28.042  23.065  22.942  0.00  0.00     0.031 A 
ATOM      6  C   UNL d   1     -28.722  22.190  22.105  0.00  0.00     0.034 A 
ATOM      7  C   UNL d   1     -28.033  21.470  21.118  0.00  0.00     0.130 A 
ATOM      8  F   UNL d   1     -28.711  20.623  20.313  0.00  0.00    -0.205 F 
ATOM      9  C   UNL d   1     -26.684  21.618  20.962  0.00  0.00     0.061 A 
ATOM     10  C   UNL d   1     -25.980  22.491  21.792  0.00  0.00     0.049 A 
ATOM     11  C   UNL d   1     -24.532  22.684  21.663  0.00  0.00     0.279 A 
ATOM     12  O   UNL d   1     -23.899  22.076  20.817  0.00  0.00    -0.265 OA
ENDROOT
BRANCH   6  13
ATOM     13  C   UNL d   1     -30.186  22.014  22.257  0.00  0.00     0.087 A 
ATOM     14  N   UNL d   1     -31.098  22.045  21.263  0.00  0.00    -0.230 NA
ATOM     15  C   UNL d   1     -32.285  21.853  21.766  0.00  0.00     0.135 A 
ATOM     16  N   UNL d   1     -32.176  21.692  23.104  0.00  0.00    -0.345 N 
ATOM     17  C   UNL d   1     -30.852  21.788  23.421  0.00  0.00     0.124 A 
ATOM     18  C   UNL d   1     -33.277  21.453  24.040  0.00  0.00     0.157 C 
BRANCH  15  19
ATOM     19  C   UNL d   1     -33.572  21.816  20.982  0.00  0.00     0.183 C 
ATOM     20  C   UNL d   1     -34.201  20.427  21.097  0.00  0.00     0.047 C 
BRANCH  19  21
ATOM     21  O   UNL d   1     -34.475  22.793  21.503  0.00  0.00    -0.388 OA
ATOM     22  H   UNL d   1     -34.296  23.695  21.203  0.00  0.00     0.210 HD
ENDBRANCH  19  21
ENDBRANCH  15  19
ENDBRANCH   6  13
BRANCH   3  23
ATOM     23  C   UNL d   1     -26.593  24.930  24.716  0.00  0.00     0.032 C 
ATOM     24  C   UNL d   1     -26.917  24.016  25.898  0.00  0.00     0.016 C 
ATOM     25  C   UNL d   1     -25.680  26.066  25.183  0.00  0.00     0.016 C 
ENDBRANCH   3  23
BRANCH   1  26
ATOM     26  C   UNL d   1     -22.532  23.732  22.380  0.00  0.00     0.068 A 
ATOM     27  C   UNL d   1     -22.019  24.484  21.331  0.00  0.00    -0.033 A 
ATOM     28  C   UNL d   1     -22.949  25.099  20.318  0.00  0.00     0.050 C 
ATOM     29  C   UNL d   1     -20.655  24.672  21.221  0.00  0.00     0.009 A 
ATOM     30  C   UNL d   1     -19.800  24.102  22.147  0.00  0.00     0.001 A 
ATOM     31  C   UNL d   1     -20.307  23.348  23.189  0.00  0.00     0.002 A 
ATOM     32  C   UNL d   1     -21.670  23.161  23.308  0.00  0.00     0.032 A 
ENDBRANCH   1  26
TORSDOF 5
ENDMDL
