MODEL 1
REMARK VINA RESULT:     -10.8      0.000      0.000
REMARK  6 active torsions:
REMARK  status: ('A' for Active; 'I' for Inactive)
REMARK    1  A    between atoms: C_8  and  N_9 
REMARK       I    between atoms: N_9  and  C_10 
REMARK    2  A    between atoms: C_10  and  C_12 
REMARK    3  A    between atoms: C_16  and  N_17 
REMARK    4  A    between atoms: C_28  and  O_29 
REMARK    5  A    between atoms: O_29  and  C_30 
REMARK    6  A    between atoms: C_30  and  C_32 
ROOT
ATOM      1  C   UNL d   1     -24.184  24.644  23.623  0.00  0.00     0.068 A 
ATOM      2  C   UNL d   1     -25.092  25.163  24.555  0.00  0.00     0.064 A 
ATOM      3  C   UNL d   1     -26.337  24.592  24.692  0.00  0.00     0.146 A 
ATOM      4  F   UNL d   1     -27.214  25.097  25.587  0.00  0.00    -0.204 F 
ATOM      5  C   UNL d   1     -26.693  23.490  23.915  0.00  0.00     0.104 A 
ATOM      6  C   UNL d   1     -25.798  22.966  22.993  0.00  0.00     0.073 A 
ATOM      7  C   UNL d   1     -24.546  23.536  22.843  0.00  0.00     0.087 A 
ENDROOT
BRANCH   1   8
ATOM      8  C   UNL d   1     -22.854  25.256  23.470  0.00  0.00     0.259 C 
ATOM      9  N   UNL d   1     -21.777  24.681  24.038  0.00  0.00    -0.321 N 
ATOM     10  H   UNL d   1     -21.863  23.822  24.482  0.00  0.00     0.169 HD
ATOM     11  O   UNL d   1     -22.728  26.281  22.827  0.00  0.00    -0.267 OA
BRANCH   9  12
ATOM     12  C   UNL d   1     -20.534  25.322  23.992  0.00  0.00     0.062 A 
ATOM     13  C   UNL d   1     -19.610  24.979  23.014  0.00  0.00    -0.034 A 
ATOM     14  C   UNL d   1     -19.944  23.915  22.000  0.00  0.00     0.050 C 
ATOM     15  C   UNL d   1     -18.386  25.618  22.968  0.00  0.00     0.009 A 
ATOM     16  C   UNL d   1     -18.076  26.590  23.901  0.00  0.00     0.002 A 
ATOM     17  C   UNL d   1     -18.993  26.935  24.876  0.00  0.00     0.026 A 
ATOM     18  C   UNL d   1     -20.222  26.303  24.926  0.00  0.00     0.061 A 
ATOM     19 CL   UNL d   1     -21.373  26.736  26.150  0.00  0.00    -0.082 Cl
ENDBRANCH   9  12
ENDBRANCH   1   8
BRANCH   7  20
ATOM     20  O   UNL d   1     -23.669  23.024  21.941  0.00  0.00    -0.336 OA
BRANCH  20  21
ATOM     21  C   UNL d   1     -23.940  23.272  20.561  0.00  0.00     0.232 C 
ATOM     22  C   UNL d   1     -22.645  23.678  19.852  0.00  0.00     0.049 C 
BRANCH  21  23
ATOM     23  C   UNL d   1     -24.498  22.003  19.915  0.00  0.00     0.413 C 
ATOM     24  F   UNL d   1     -25.884  22.128  19.764  0.00  0.00    -0.168 F 
ATOM     25  F   UNL d   1     -23.908  21.819  18.660  0.00  0.00    -0.168 F 
ATOM     26  F   UNL d   1     -24.215  20.902  20.729  0.00  0.00    -0.168 F 
ENDBRANCH  21  23
ENDBRANCH  20  21
ENDBRANCH   7  20
BRANCH   5  27
ATOM     27  N   UNL d   1     -27.956  22.912  24.065  0.00  0.00    -0.178 N 
ATOM     28  C   UNL d   1     -28.363  22.130  25.091  0.00  0.00     0.351 A 
ATOM     29  N   UNL d   1     -29.645  21.813  24.866  0.00  0.00    -0.280 N 
ATOM     30  O   UNL d   1     -27.688  21.782  26.044  0.00  0.00    -0.244 OA
ATOM     31  C   UNL d   1     -30.027  22.371  23.660  0.00  0.00     0.155 A 
ATOM     32  C   UNL d   1     -30.557  21.029  25.708  0.00  0.00     0.161 C 
ATOM     33  N   UNL d   1     -29.037  23.033  23.176  0.00  0.00    -0.147 NA
ATOM     34  C   UNL d   1     -31.406  22.177  23.072  0.00  0.00     0.248 C 
ATOM     35  O   UNL d   1     -32.262  21.701  24.122  0.00  0.00    -0.382 OA
ATOM     36  C   UNL d   1     -31.735  20.577  24.832  0.00  0.00     0.188 C 
ENDBRANCH   5  27
TORSDOF 6
ENDMDL
