MODEL 1
REMARK VINA RESULT:     -10.7      0.000      0.000
REMARK  7 active torsions:
REMARK  status: ('A' for Active; 'I' for Inactive)
REMARK    1  A    between atoms: C_5  and  C_6 
REMARK    2  A    between atoms: C_11  and  N_12 
REMARK       I    between atoms: N_12  and  C_13 
REMARK    3  A    between atoms: C_13  and  C_15 
REMARK    4  A    between atoms: C_19  and  N_20 
REMARK    5  A    between atoms: C_31  and  O_32 
REMARK    6  A    between atoms: O_32  and  C_33 
REMARK    7  A    between atoms: C_33  and  C_35 
ROOT
ATOM      1  C   UNL d   1     -24.144  24.686  23.686  0.00  0.00     0.068 A 
ATOM      2  C   UNL d   1     -25.069  25.175  24.614  0.00  0.00     0.064 A 
ATOM      3  C   UNL d   1     -26.315  24.598  24.714  0.00  0.00     0.146 A 
ATOM      4  F   UNL d   1     -27.208  25.071  25.610  0.00  0.00    -0.204 F 
ATOM      5  C   UNL d   1     -26.657  23.523  23.892  0.00  0.00     0.104 A 
ATOM      6  C   UNL d   1     -25.744  23.028  22.973  0.00  0.00     0.073 A 
ATOM      7  C   UNL d   1     -24.490  23.606  22.860  0.00  0.00     0.087 A 
ENDROOT
BRANCH   1   8
ATOM      8  C   UNL d   1     -22.811  25.301  23.577  0.00  0.00     0.259 C 
ATOM      9  N   UNL d   1     -21.766  24.767  24.239  0.00  0.00    -0.322 N 
ATOM     10  H   UNL d   1     -21.905  24.027  24.850  0.00  0.00     0.169 HD
ATOM     11  O   UNL d   1     -22.653  26.293  22.890  0.00  0.00    -0.267 OA
BRANCH   9  12
ATOM     12  C   UNL d   1     -20.479  25.279  24.043  0.00  0.00     0.041 A 
ATOM     13  C   UNL d   1     -19.709  24.836  22.976  0.00  0.00    -0.035 A 
ATOM     14  C   UNL d   1     -20.259  23.804  22.025  0.00  0.00     0.050 C 
ATOM     15  C   UNL d   1     -18.438  25.344  22.785  0.00  0.00     0.010 A 
ATOM     16  C   UNL d   1     -17.933  26.291  23.656  0.00  0.00     0.017 A 
ATOM     17  C   UNL d   1     -18.697  26.735  24.720  0.00  0.00     0.050 A 
ATOM     18  C   UNL d   1     -19.971  26.235  24.914  0.00  0.00     0.046 A 
BRANCH  17  19
ATOM     19  C   UNL d   1     -18.143  27.767  25.667  0.00  0.00     0.417 C 
ATOM     20  F   UNL d   1     -17.589  27.128  26.782  0.00  0.00    -0.166 F 
ATOM     21  F   UNL d   1     -17.153  28.512  25.018  0.00  0.00    -0.166 F 
ATOM     22  F   UNL d   1     -19.172  28.620  26.082  0.00  0.00    -0.166 F 
ENDBRANCH  17  19
ENDBRANCH   9  12
ENDBRANCH   1   8
BRANCH   7  23
ATOM     23  O   UNL d   1     -23.598  23.126  21.958  0.00  0.00    -0.336 OA
BRANCH  23  24
ATOM     24  C   UNL d   1     -23.912  23.306  20.575  0.00  0.00     0.232 C 
ATOM     25  C   UNL d   1     -22.652  23.732  19.818  0.00  0.00     0.049 C 
BRANCH  24  26
ATOM     26  C   UNL d   1     -24.435  21.991  19.995  0.00  0.00     0.413 C 
ATOM     27  F   UNL d   1     -25.807  22.105  19.742  0.00  0.00    -0.168 F 
ATOM     28  F   UNL d   1     -23.763  21.707  18.802  0.00  0.00    -0.168 F 
ATOM     29  F   UNL d   1     -24.215  20.956  20.911  0.00  0.00    -0.168 F 
ENDBRANCH  24  26
ENDBRANCH  23  24
ENDBRANCH   7  23
BRANCH   5  30
ATOM     30  N   UNL d   1     -27.922  22.941  23.999  0.00  0.00    -0.178 N 
ATOM     31  C   UNL d   1     -28.358  22.155  25.008  0.00  0.00     0.351 A 
ATOM     32  N   UNL d   1     -29.634  21.830  24.740  0.00  0.00    -0.284 N 
ATOM     33  O   UNL d   1     -27.713  21.805  25.981  0.00  0.00    -0.244 OA
ATOM     34  C   UNL d   1     -29.978  22.390  23.528  0.00  0.00     0.131 A 
ATOM     35  C   UNL d   1     -30.547  21.039  25.572  0.00  0.00     0.135 C 
ATOM     36  N   UNL d   1     -28.973  23.060  23.078  0.00  0.00    -0.149 NA
ATOM     37  C   UNL d   1     -31.330  22.210  22.874  0.00  0.00     0.081 C 
ATOM     38  C   UNL d   1     -32.317  21.735  23.948  0.00  0.00     0.009 C 
ATOM     39  C   UNL d   1     -31.705  20.546  24.698  0.00  0.00     0.021 C 
ENDBRANCH   5  30
TORSDOF 7
ENDMDL
