MODEL 1
REMARK VINA RESULT:      -9.7      0.000      0.000
REMARK  8 active torsions:
REMARK  status: ('A' for Active; 'I' for Inactive)
REMARK    1  A    between atoms: C_7  and  N_8 
REMARK       I    between atoms: N_8  and  C_9 
REMARK    2  A    between atoms: C_9  and  C_11 
REMARK    3  A    between atoms: C_15  and  C_16 
REMARK    4  A    between atoms: C_20  and  C_21 
REMARK    5  A    between atoms: C_21  and  O_24 
REMARK    6  A    between atoms: C_27  and  O_28 
REMARK    7  A    between atoms: O_28  and  C_29 
REMARK    8  A    between atoms: C_29  and  C_31 
ROOT
ATOM      1  C   UNL d   1     -24.329  24.378  23.444  0.00  0.00     0.068 A 
ATOM      2  C   UNL d   1     -25.203  24.886  24.411  0.00  0.00     0.063 A 
ATOM      3  C   UNL d   1     -26.454  24.333  24.567  0.00  0.00     0.130 A 
ATOM      4  F   UNL d   1     -27.297  24.825  25.500  0.00  0.00    -0.205 F 
ATOM      5  C   UNL d   1     -26.855  23.262  23.760  0.00  0.00     0.035 A 
ATOM      6  C   UNL d   1     -25.988  22.752  22.797  0.00  0.00     0.054 A 
ATOM      7  C   UNL d   1     -24.732  23.307  22.631  0.00  0.00     0.086 A 
ENDROOT
BRANCH   1   8
ATOM      8  C   UNL d   1     -22.991  24.969  23.276  0.00  0.00     0.259 C 
ATOM      9  N   UNL d   1     -21.916  24.372  23.826  0.00  0.00    -0.322 N 
ATOM     10  H   UNL d   1     -22.030  23.590  24.388  0.00  0.00     0.169 HD
ATOM     11  O   UNL d   1     -22.856  25.997  22.639  0.00  0.00    -0.267 OA
BRANCH   9  12
ATOM     12  C   UNL d   1     -20.635  24.882  23.589  0.00  0.00     0.041 A 
ATOM     13  C   UNL d   1     -20.065  25.777  24.487  0.00  0.00    -0.035 A 
ATOM     14  C   UNL d   1     -20.827  26.199  25.715  0.00  0.00     0.050 C 
ATOM     15  C   UNL d   1     -18.801  26.279  24.250  0.00  0.00     0.009 A 
ATOM     16  C   UNL d   1     -18.102  25.891  23.123  0.00  0.00     0.001 A 
ATOM     17  C   UNL d   1     -18.665  25.001  22.227  0.00  0.00     0.002 A 
ATOM     18  C   UNL d   1     -19.927  24.491  22.460  0.00  0.00     0.030 A 
ENDBRANCH   9  12
ENDBRANCH   1   8
BRANCH   7  19
ATOM     19  O   UNL d   1     -23.889  22.815  21.689  0.00  0.00    -0.336 OA
BRANCH  19  20
ATOM     20  C   UNL d   1     -23.973  23.385  20.381  0.00  0.00     0.232 C 
ATOM     21  C   UNL d   1     -22.578  23.813  19.922  0.00  0.00     0.049 C 
BRANCH  20  22
ATOM     22  C   UNL d   1     -24.535  22.347  19.407  0.00  0.00     0.413 C 
ATOM     23  F   UNL d   1     -24.594  22.897  18.122  0.00  0.00    -0.168 F 
ATOM     24  F   UNL d   1     -23.705  21.222  19.395  0.00  0.00    -0.168 F 
ATOM     25  F   UNL d   1     -25.820  21.974  19.813  0.00  0.00    -0.168 F 
ENDBRANCH  20  22
ENDBRANCH  19  20
ENDBRANCH   7  19
BRANCH   5  26
ATOM     26  C   UNL d   1     -28.202  22.670  23.931  0.00  0.00     0.087 A 
ATOM     27  N   UNL d   1     -29.249  22.824  23.095  0.00  0.00    -0.230 NA
ATOM     28  C   UNL d   1     -30.270  22.160  23.560  0.00  0.00     0.140 A 
ATOM     29  N   UNL d   1     -29.911  21.559  24.723  0.00  0.00    -0.345 N 
ATOM     30  C   UNL d   1     -28.604  21.879  24.961  0.00  0.00     0.124 A 
ATOM     31  C   UNL d   1     -30.766  20.721  25.567  0.00  0.00     0.157 C 
BRANCH  28  32
ATOM     32  C   UNL d   1     -31.629  22.075  22.915  0.00  0.00     0.111 C 
ATOM     33  C   UNL d   1     -31.470  22.075  21.393  0.00  0.00     0.054 C 
ATOM     34  C   UNL d   1     -32.323  20.785  23.355  0.00  0.00     0.054 C 
BRANCH  32  35
ATOM     35  O   UNL d   1     -32.416  23.200  23.311  0.00  0.00    -0.383 OA
ATOM     36  H   UNL d   1     -32.470  23.324  24.268  0.00  0.00     0.211 HD
ENDBRANCH  32  35
ENDBRANCH  28  32
ENDBRANCH   5  26
TORSDOF 8
ENDMDL
