MODEL 1
REMARK VINA RESULT:      -9.7      0.000      0.000
REMARK  9 active torsions:
REMARK  status: ('A' for Active; 'I' for Inactive)
REMARK    1  A    between atoms: C_2  and  C_3 
REMARK    2  A    between atoms: C_3  and  C_4 
REMARK    3  A    between atoms: C_4  and  O_6 
REMARK    4  A    between atoms: O_6  and  C_7 
REMARK    5  A    between atoms: C_9  and  N_10 
REMARK    6  A    between atoms: N_14  and  C_15 
REMARK    7  A    between atoms: C_23  and  C_24 
REMARK       I    between atoms: C_24  and  N_26 
REMARK    8  A    between atoms: N_26  and  C_27 
REMARK    9  A    between atoms: C_31  and  C_32 
ROOT
ATOM      1  C   UNL d   1     -26.322  23.238  23.410  0.00  0.00     0.087 A 
ATOM      2  C   UNL d   1     -27.688  23.039  23.512  0.00  0.00     0.073 A 
ATOM      3  C   UNL d   1     -28.339  22.210  22.607  0.00  0.00     0.104 A 
ATOM      4  C   UNL d   1     -27.620  21.576  21.593  0.00  0.00     0.146 A 
ATOM      5  F   UNL d   1     -28.260  20.773  20.717  0.00  0.00    -0.204 F 
ATOM      6  C   UNL d   1     -26.262  21.769  21.483  0.00  0.00     0.064 A 
ATOM      7  C   UNL d   1     -25.599  22.606  22.387  0.00  0.00     0.068 A 
ENDROOT
BRANCH   7   8
ATOM      8  C   UNL d   1     -24.147  22.819  22.269  0.00  0.00     0.259 C 
ATOM      9  O   UNL d   1     -23.376  21.913  22.520  0.00  0.00    -0.267 OA
ATOM     10  N   UNL d   1     -23.672  24.020  21.881  0.00  0.00    -0.323 N 
ATOM     11  H   UNL d   1     -24.282  24.763  21.750  0.00  0.00     0.169 HD
BRANCH  10  12
ATOM     12  C   UNL d   1     -22.301  24.194  21.669  0.00  0.00     0.035 A 
ATOM     13  C   UNL d   1     -21.482  24.598  22.715  0.00  0.00     0.045 A 
ATOM     14  C   UNL d   1     -20.128  24.770  22.503  0.00  0.00     0.050 A 
ATOM     15  C   UNL d   1     -19.588  24.539  21.251  0.00  0.00     0.016 A 
ATOM     16  C   UNL d   1     -20.400  24.137  20.208  0.00  0.00     0.003 A 
ATOM     17  C   UNL d   1     -21.755  23.957  20.414  0.00  0.00     0.029 A 
BRANCH  14  18
ATOM     18  C   UNL d   1     -19.238  25.208  23.638  0.00  0.00     0.417 C 
ATOM     19  F   UNL d   1     -17.904  25.194  23.216  0.00  0.00    -0.166 F 
ATOM     20  F   UNL d   1     -19.589  26.504  24.032  0.00  0.00    -0.166 F 
ATOM     21  F   UNL d   1     -19.394  24.333  24.718  0.00  0.00    -0.166 F 
ENDBRANCH  14  18
ENDBRANCH  10  12
ENDBRANCH   7   8
BRANCH   1  22
ATOM     22  O   UNL d   1     -25.685  24.047  24.294  0.00  0.00    -0.345 OA
BRANCH  22  23
ATOM     23  C   UNL d   1     -25.980  25.443  24.224  0.00  0.00     0.124 C 
ATOM     24  C   UNL d   1     -26.362  25.954  25.615  0.00  0.00     0.040 C 
BRANCH  23  25
ATOM     25  C   UNL d   1     -24.749  26.200  23.723  0.00  0.00     0.032 C 
BRANCH  25  26
ATOM     26  C   UNL d   1     -23.691  26.243  24.828  0.00  0.00    -0.002 C 
ATOM     27  C   UNL d   1     -22.602  27.250  24.453  0.00  0.00     0.005 C 
ENDBRANCH  25  26
ENDBRANCH  23  25
ENDBRANCH  22  23
ENDBRANCH   1  22
BRANCH   3  28
ATOM     28  N   UNL d   1     -29.717  22.010  22.713  0.00  0.00    -0.178 N 
ATOM     29  C   UNL d   1     -30.633  22.225  21.747  0.00  0.00     0.351 A 
ATOM     30  N   UNL d   1     -31.840  21.906  22.257  0.00  0.00    -0.280 N 
ATOM     31  O   UNL d   1     -30.411  22.628  20.619  0.00  0.00    -0.244 OA
ATOM     32  C   UNL d   1     -31.666  21.500  23.557  0.00  0.00     0.127 A 
ATOM     33  N   UNL d   1     -30.405  21.556  23.846  0.00  0.00    -0.149 NA
ATOM     34  C   UNL d   1     -32.762  21.061  24.493  0.00  0.00     0.093 C 
BRANCH  30  35
ATOM     35  C   UNL d   1     -33.119  21.987  21.547  0.00  0.00     0.088 C 
ATOM     36  C   UNL d   1     -33.694  20.579  21.371  0.00  0.00     0.032 C 
ATOM     37  C   UNL d   1     -34.098  22.839  22.358  0.00  0.00     0.032 C 
ENDBRANCH  30  35
ENDBRANCH   3  28
TORSDOF 9
ENDMDL
