MODEL 1
REMARK VINA RESULT:      -9.8      0.000      0.000
REMARK  6 active torsions:
REMARK  status: ('A' for Active; 'I' for Inactive)
REMARK    1  A    between atoms: C_2  and  N_3 
REMARK    2  A    between atoms: C_4  and  C_5 
REMARK    3  A    between atoms: C_5  and  O_6 
REMARK    4  A    between atoms: N_8  and  C_9 
REMARK    5  A    between atoms: C_12  and  C_13 
REMARK    6  A    between atoms: N_17  and  C_18 
ROOT
ATOM      1  C   UNL d   1     -29.090  22.087  21.986  0.00  0.00     0.103 A 
ATOM      2  C   UNL d   1     -28.357  22.818  22.906  0.00  0.00     0.048 A 
ATOM      3  C   UNL d   1     -26.973  22.903  22.765  0.00  0.00    -0.010 A 
ATOM      4  C   UNL d   1     -26.144  23.661  23.704  0.00  0.00    -0.028 A 
ATOM      5  C   UNL d   1     -24.816  23.709  23.521  0.00  0.00     0.103 A 
ATOM      6  N   UNL d   1     -24.197  23.073  22.483  0.00  0.00    -0.319 N 
ATOM      7  C   UNL d   1     -24.880  22.353  21.570  0.00  0.00     0.259 A 
ATOM      8  O   UNL d   1     -24.292  21.800  20.658  0.00  0.00    -0.267 OA
ATOM      9  C   UNL d   1     -26.336  22.242  21.688  0.00  0.00     0.046 A 
ATOM     10  C   UNL d   1     -27.097  21.511  20.774  0.00  0.00     0.062 A 
ATOM     11  C   UNL d   1     -28.453  21.433  20.928  0.00  0.00     0.146 A 
ATOM     12  F   UNL d   1     -29.185  20.720  20.045  0.00  0.00    -0.204 F 
ENDROOT
BRANCH   1  13
ATOM     13  N   UNL d   1     -30.478  21.997  22.121  0.00  0.00    -0.178 N 
ATOM     14  N   UNL d   1     -31.421  22.090  21.088  0.00  0.00    -0.147 NA
ATOM     15  C   UNL d   1     -32.600  21.959  21.606  0.00  0.00     0.154 A 
ATOM     16  N   UNL d   1     -32.471  21.779  22.961  0.00  0.00    -0.283 N 
ATOM     17  C   UNL d   1     -31.159  21.809  23.270  0.00  0.00     0.351 A 
ATOM     18  O   UNL d   1     -30.678  21.686  24.382  0.00  0.00    -0.244 OA
BRANCH  15  19
ATOM     19  C   UNL d   1     -33.901  21.996  20.846  0.00  0.00     0.244 C 
BRANCH  19  20
ATOM     20  O   UNL d   1     -34.712  23.063  21.342  0.00  0.00    -0.393 OA
ATOM     21  H   UNL d   1     -35.348  22.791  22.018  0.00  0.00     0.209 HD
ENDBRANCH  19  20
ENDBRANCH  15  19
BRANCH  16  22
ATOM     22  C   UNL d   1     -33.572  21.593  23.910  0.00  0.00     0.131 C 
ATOM     23  C   UNL d   1     -33.594  20.138  24.385  0.00  0.00     0.027 C 
ENDBRANCH  16  22
ENDBRANCH   1  13
BRANCH   4  24
ATOM     24  C   UNL d   1     -26.777  24.382  24.867  0.00  0.00     0.013 C 
ATOM     25  C   UNL d   1     -26.845  23.443  26.073  0.00  0.00     0.015 C 
ATOM     26  C   UNL d   1     -25.939  25.611  25.223  0.00  0.00     0.015 C 
ENDBRANCH   4  24
BRANCH   6  27
ATOM     27  C   UNL d   1     -22.742  23.177  22.356  0.00  0.00     0.092 C 
ATOM     28  C   UNL d   1     -22.366  24.493  21.654  0.00  0.00     0.026 C 
ATOM     29  C   UNL d   1     -21.499  25.292  22.649  0.00  0.00     0.002 C 
ATOM     30  C   UNL d   1     -20.912  24.213  23.592  0.00  0.00     0.002 C 
ATOM     31  C   UNL d   1     -22.090  23.221  23.754  0.00  0.00     0.026 C 
ENDBRANCH   6  27
TORSDOF 6
ENDMDL
