MODEL 1
REMARK VINA RESULT:      -7.5      0.000      0.000
REMARK  7 active torsions:
REMARK  status: ('A' for Active; 'I' for Inactive)
REMARK    1  A    between atoms: C_2  and  N_3 
REMARK    2  A    between atoms: C_4  and  C_5 
REMARK    3  A    between atoms: C_5  and  O_6 
REMARK    4  A    between atoms: N_8  and  C_9 
REMARK    5  A    between atoms: C_12  and  C_13 
REMARK    6  A    between atoms: N_17  and  C_18 
REMARK    7  A    between atoms: C_23  and  O_24 
ROOT
ATOM      1  C   UNL d   1     -20.742  24.540  22.513  0.00  0.00     0.103 A 
ATOM      2  C   UNL d   1     -20.759  25.225  23.716  0.00  0.00     0.048 A 
ATOM      3  C   UNL d   1     -19.571  25.754  24.218  0.00  0.00    -0.010 A 
ATOM      4  C   UNL d   1     -19.525  26.483  25.487  0.00  0.00    -0.027 A 
ATOM      5  C   UNL d   1     -18.354  26.975  25.922  0.00  0.00     0.109 A 
ATOM      6  N   UNL d   1     -17.190  26.823  25.220  0.00  0.00    -0.286 N 
ATOM      7  C   UNL d   1     -17.140  26.166  24.043  0.00  0.00     0.263 A 
ATOM      8  O   UNL d   1     -16.083  26.050  23.449  0.00  0.00    -0.267 OA
ATOM      9  C   UNL d   1     -18.369  25.593  23.489  0.00  0.00     0.046 A 
ATOM     10  C   UNL d   1     -18.378  24.904  22.277  0.00  0.00     0.062 A 
ATOM     11  C   UNL d   1     -19.550  24.386  21.799  0.00  0.00     0.146 A 
ATOM     12  F   UNL d   1     -19.557  23.718  20.625  0.00  0.00    -0.204 F 
ENDROOT
BRANCH   1  13
ATOM     13  N   UNL d   1     -21.928  24.002  22.005  0.00  0.00    -0.178 N 
ATOM     14  N   UNL d   1     -22.780  23.102  22.661  0.00  0.00    -0.147 NA
ATOM     15  C   UNL d   1     -23.774  22.843  21.874  0.00  0.00     0.154 A 
ATOM     16  N   UNL d   1     -23.605  23.538  20.701  0.00  0.00    -0.283 N 
ATOM     17  C   UNL d   1     -22.466  24.253  20.794  0.00  0.00     0.351 A 
ATOM     18  O   UNL d   1     -22.006  24.990  19.940  0.00  0.00    -0.244 OA
BRANCH  15  19
ATOM     19  C   UNL d   1     -24.926  21.924  22.189  0.00  0.00     0.244 C 
BRANCH  19  20
ATOM     20  O   UNL d   1     -24.714  20.660  21.555  0.00  0.00    -0.393 OA
ATOM     21  H   UNL d   1     -24.343  20.724  20.664  0.00  0.00     0.209 HD
ENDBRANCH  19  20
ENDBRANCH  15  19
BRANCH  16  22
ATOM     22  C   UNL d   1     -24.511  23.512  19.550  0.00  0.00     0.131 C 
ATOM     23  C   UNL d   1     -24.190  22.299  18.676  0.00  0.00     0.027 C 
ENDBRANCH  16  22
ENDBRANCH   1  13
BRANCH   4  24
ATOM     24  C   UNL d   1     -20.780  26.679  26.299  0.00  0.00     0.013 C 
ATOM     25  C   UNL d   1     -20.450  26.558  27.787  0.00  0.00     0.015 C 
ATOM     26  C   UNL d   1     -21.358  28.066  26.016  0.00  0.00     0.015 C 
ENDBRANCH   4  24
BRANCH   6  27
ATOM     27  C   UNL d   1     -16.012  27.366  25.740  0.00  0.00     0.075 A 
ATOM     28  C   UNL d   1     -15.606  28.652  25.394  0.00  0.00     0.114 A 
ATOM     29  C   UNL d   1     -14.430  29.154  25.932  0.00  0.00     0.188 A 
ATOM     30 CL   UNL d   1     -16.558  29.614  24.307  0.00  0.00    -0.077 Cl
ATOM     31  N   UNL d   1     -13.700  28.424  26.761  0.00  0.00    -0.235 NA
ATOM     32  C   UNL d   1     -14.057  27.201  27.108  0.00  0.00     0.128 A 
ATOM     33  C   UNL d   1     -15.215  26.635  26.621  0.00  0.00    -0.015 A 
ATOM     34  C   UNL d   1     -15.613  25.240  27.032  0.00  0.00     0.052 C 
BRANCH  29  35
ATOM     35  O   UNL d   1     -14.022  30.406  25.604  0.00  0.00    -0.338 OA
ATOM     36  C   UNL d   1     -14.279  31.442  26.555  0.00  0.00     0.211 C 
ENDBRANCH  29  35
ENDBRANCH   6  27
TORSDOF 7
ENDMDL
