MODEL 1
REMARK VINA RESULT:     -10.0      0.000      0.000
REMARK  6 active torsions:
REMARK  status: ('A' for Active; 'I' for Inactive)
REMARK    1  A    between atoms: C_2  and  C_4 
REMARK    2  A    between atoms: N_6  and  C_7 
REMARK    3  A    between atoms: C_21  and  N_22 
REMARK    4  A    between atoms: C_24  and  C_25 
REMARK    5  A    between atoms: C_25  and  O_26 
REMARK    6  A    between atoms: N_27  and  C_28 
ROOT
ATOM      1  C   UNL d   1     -25.684  24.104  23.634  0.00  0.00     0.094 A 
ATOM      2  N   UNL d   1     -24.426  24.277  23.309  0.00  0.00    -0.163 NA
ATOM      3  N   UNL d   1     -23.841  23.635  22.217  0.00  0.00    -0.192 N 
ATOM      4  C   UNL d   1     -24.537  22.794  21.427  0.00  0.00     0.280 A 
ATOM      5  O   UNL d   1     -23.999  22.248  20.479  0.00  0.00    -0.265 OA
ATOM      6  C   UNL d   1     -25.953  22.548  21.723  0.00  0.00     0.050 A 
ATOM      7  C   UNL d   1     -26.728  21.690  20.942  0.00  0.00     0.062 A 
ATOM      8  C   UNL d   1     -28.044  21.491  21.256  0.00  0.00     0.146 A 
ATOM      9  F   UNL d   1     -28.794  20.659  20.498  0.00  0.00    -0.204 F 
ATOM     10  C   UNL d   1     -28.622  22.138  22.351  0.00  0.00     0.103 A 
ATOM     11  C   UNL d   1     -27.873  22.998  23.136  0.00  0.00     0.050 A 
ATOM     12  C   UNL d   1     -26.530  23.206  22.832  0.00  0.00     0.013 A 
ENDROOT
BRANCH  10  13
ATOM     13  N   UNL d   1     -29.969  21.921  22.653  0.00  0.00    -0.178 N 
ATOM     14  C   UNL d   1     -31.016  22.108  21.822  0.00  0.00     0.351 A 
ATOM     15  N   UNL d   1     -32.134  21.789  22.504  0.00  0.00    -0.283 N 
ATOM     16  O   UNL d   1     -30.960  22.498  20.669  0.00  0.00    -0.244 OA
ATOM     17  C   UNL d   1     -31.772  21.392  23.767  0.00  0.00     0.154 A 
ATOM     18  N   UNL d   1     -30.483  21.464  23.874  0.00  0.00    -0.147 NA
BRANCH  15  19
ATOM     19  C   UNL d   1     -33.502  21.849  21.983  0.00  0.00     0.131 C 
ATOM     20  C   UNL d   1     -33.929  20.458  21.511  0.00  0.00     0.027 C 
ENDBRANCH  15  19
BRANCH  17  21
ATOM     21  C   UNL d   1     -32.718  20.946  24.851  0.00  0.00     0.244 C 
BRANCH  21  22
ATOM     22  O   UNL d   1     -32.060  21.018  26.118  0.00  0.00    -0.393 OA
ATOM     23  H   UNL d   1     -32.421  21.693  26.711  0.00  0.00     0.209 HD
ENDBRANCH  21  22
ENDBRANCH  17  21
ENDBRANCH  10  13
BRANCH   1  24
ATOM     24  C   UNL d   1     -26.252  24.810  24.799  0.00  0.00    -0.040 C 
ATOM     25  C   UNL d   1     -26.100  26.124  24.919  0.00  0.00     0.021 C 
ATOM     26  C   UNL d   1     -27.003  24.039  25.854  0.00  0.00     0.050 C 
ENDBRANCH   1  24
BRANCH   3  27
ATOM     27  C   UNL d   1     -22.490  23.871  21.936  0.00  0.00     0.122 A 
ATOM     28  C   UNL d   1     -21.504  23.338  22.756  0.00  0.00     0.066 A 
ATOM     29  C   UNL d   1     -20.170  23.573  22.475  0.00  0.00     0.026 A 
ATOM     30 CL   UNL d   1     -21.944  22.379  24.134  0.00  0.00    -0.082 Cl
ATOM     31  C   UNL d   1     -19.818  24.338  21.379  0.00  0.00     0.005 A 
ATOM     32  C   UNL d   1     -20.796  24.870  20.559  0.00  0.00     0.045 A 
ATOM     33  C   UNL d   1     -22.131  24.635  20.830  0.00  0.00     0.146 A 
ATOM     34  F   UNL d   1     -23.086  25.150  20.025  0.00  0.00    -0.204 F 
ENDBRANCH   3  27
TORSDOF 6
ENDMDL
