MODEL 1
REMARK VINA RESULT:     -10.6      0.000      0.000
REMARK  7 active torsions:
REMARK  status: ('A' for Active; 'I' for Inactive)
REMARK    1  A    between atoms: O_2  and  C_3 
REMARK    2  A    between atoms: C_9  and  N_10 
REMARK       I    between atoms: N_10  and  C_11 
REMARK    3  A    between atoms: C_11  and  C_13 
REMARK    4  A    between atoms: C_17  and  N_18 
REMARK    5  A    between atoms: C_29  and  O_30 
REMARK    6  A    between atoms: O_30  and  C_31 
REMARK    7  A    between atoms: C_31  and  C_33 
ROOT
ATOM      1  C   UNL d   1     -24.207  24.591  23.627  0.00  0.00     0.068 A 
ATOM      2  C   UNL d   1     -25.111  25.109  24.561  0.00  0.00     0.064 A 
ATOM      3  C   UNL d   1     -26.354  24.534  24.705  0.00  0.00     0.146 A 
ATOM      4  F   UNL d   1     -27.226  25.034  25.608  0.00  0.00    -0.204 F 
ATOM      5  C   UNL d   1     -26.715  23.439  23.923  0.00  0.00     0.104 A 
ATOM      6  C   UNL d   1     -25.822  22.916  22.997  0.00  0.00     0.073 A 
ATOM      7  C   UNL d   1     -24.572  23.489  22.840  0.00  0.00     0.087 A 
ENDROOT
BRANCH   1   8
ATOM      8  C   UNL d   1     -22.876  25.202  23.469  0.00  0.00     0.259 C 
ATOM      9  N   UNL d   1     -21.799  24.628  24.042  0.00  0.00    -0.320 N 
ATOM     10  H   UNL d   1     -21.886  23.771  24.489  0.00  0.00     0.169 HD
ATOM     11  O   UNL d   1     -22.749  26.225  22.823  0.00  0.00    -0.267 OA
BRANCH   9  12
ATOM     12  C   UNL d   1     -20.555  25.270  23.995  0.00  0.00     0.074 A 
ATOM     13  C   UNL d   1     -20.234  26.241  24.941  0.00  0.00     0.095 A 
ATOM     14  C   UNL d   1     -19.003  26.873  24.891  0.00  0.00     0.039 A 
ATOM     15  C   UNL d   1     -18.095  26.540  23.902  0.00  0.00     0.003 A 
ATOM     16  C   UNL d   1     -18.413  25.577  22.962  0.00  0.00     0.009 A 
ATOM     17  C   UNL d   1     -19.637  24.937  23.010  0.00  0.00    -0.032 A 
ATOM     18  C   UNL d   1     -19.977  23.883  21.988  0.00  0.00     0.050 C 
BRANCH  13  19
ATOM     19  O   UNL d   1     -21.129  26.567  25.913  0.00  0.00    -0.354 OA
ATOM     20  C   UNL d   1     -21.609  27.913  25.926  0.00  0.00     0.210 C 
ENDBRANCH  13  19
ENDBRANCH   9  12
ENDBRANCH   1   8
BRANCH   7  21
ATOM     21  O   UNL d   1     -23.701  22.982  21.932  0.00  0.00    -0.336 OA
BRANCH  21  22
ATOM     22  C   UNL d   1     -23.971  23.247  20.554  0.00  0.00     0.232 C 
ATOM     23  C   UNL d   1     -22.681  23.684  19.857  0.00  0.00     0.049 C 
BRANCH  22  24
ATOM     24  C   UNL d   1     -24.506  21.979  19.886  0.00  0.00     0.413 C 
ATOM     25  F   UNL d   1     -23.917  21.833  18.626  0.00  0.00    -0.168 F 
ATOM     26  F   UNL d   1     -24.197  20.868  20.678  0.00  0.00    -0.168 F 
ATOM     27  F   UNL d   1     -25.895  22.078  19.744  0.00  0.00    -0.168 F 
ENDBRANCH  22  24
ENDBRANCH  21  22
ENDBRANCH   7  21
BRANCH   5  28
ATOM     28  N   UNL d   1     -27.978  22.860  24.074  0.00  0.00    -0.178 N 
ATOM     29  C   UNL d   1     -28.390  22.098  25.110  0.00  0.00     0.351 A 
ATOM     30  N   UNL d   1     -29.672  21.771  24.881  0.00  0.00    -0.284 N 
ATOM     31  O   UNL d   1     -27.722  21.768  26.073  0.00  0.00    -0.244 OA
ATOM     32  C   UNL d   1     -30.047  22.305  23.666  0.00  0.00     0.131 A 
ATOM     33  C   UNL d   1     -30.566  21.000  25.754  0.00  0.00     0.135 C 
ATOM     34  N   UNL d   1     -29.052  22.963  23.177  0.00  0.00    -0.149 NA
ATOM     35  C   UNL d   1     -31.414  22.114  23.051  0.00  0.00     0.081 C 
ATOM     36  C   UNL d   1     -32.375  21.665  24.160  0.00  0.00     0.009 C 
ATOM     37  C   UNL d   1     -31.747  20.491  24.919  0.00  0.00     0.021 C 
ENDBRANCH   5  28
TORSDOF 7
ENDMDL
