MODEL 1
REMARK VINA RESULT:      -9.8      0.000      0.000
REMARK  6 active torsions:
REMARK  status: ('A' for Active; 'I' for Inactive)
REMARK    1  A    between atoms: C_2  and  O_3 
REMARK    2  A    between atoms: O_3  and  C_4 
REMARK    3  A    between atoms: C_4  and  C_6 
REMARK    4  A    between atoms: C_8  and  N_9 
REMARK    5  A    between atoms: N_9  and  C_10 
REMARK    6  A    between atoms: C_20  and  C_21 
ROOT
ATOM      1  C   UNL d   1     -23.244  23.671  20.835  0.00  0.00     0.113 A 
ATOM      2  S   UNL d   1     -24.208  22.391  20.101  0.00  0.00    -0.044 SA
ATOM      3  C   UNL d   1     -25.016  22.126  21.583  0.00  0.00     0.172 A 
ATOM      4  N   UNL d   1     -24.580  22.938  22.500  0.00  0.00    -0.222 NA
ATOM      5  C   UNL d   1     -23.629  23.782  22.157  0.00  0.00     0.093 A 
ENDROOT
BRANCH   3   6
ATOM      6  N   UNL d   1     -26.002  21.182  21.779  0.00  0.00    -0.335 N 
ATOM      7  H   UNL d   1     -25.801  20.241  21.663  0.00  0.00     0.168 HD
BRANCH   6   8
ATOM      8  C   UNL d   1     -27.292  21.584  22.146  0.00  0.00     0.036 A 
ATOM      9  C   UNL d   1     -28.275  21.733  21.178  0.00  0.00     0.069 A 
ATOM     10  C   UNL d   1     -29.551  22.129  21.542  0.00  0.00     0.107 A 
ATOM     11  C   UNL d   1     -29.845  22.378  22.880  0.00  0.00     0.105 A 
ATOM     12  O   UNL d   1     -30.676  22.345  20.801  0.00  0.00    -0.323 OA
ATOM     13  C   UNL d   1     -28.859  22.234  23.844  0.00  0.00     0.042 A 
ATOM     14  O   UNL d   1     -31.155  22.751  22.977  0.00  0.00    -0.323 OA
ATOM     15  C   UNL d   1     -27.588  21.833  23.479  0.00  0.00     0.032 A 
ATOM     16  C   UNL d   1     -31.766  22.331  21.742  0.00  0.00     0.352 C 
ENDBRANCH   6   8
ENDBRANCH   3   6
BRANCH   1  17
ATOM     17  C   UNL d   1     -22.253  24.445  20.187  0.00  0.00     0.302 C 
ATOM     18  O   UNL d   1     -22.574  25.413  19.524  0.00  0.00    -0.259 OA
BRANCH  17  19
ATOM     19  O   UNL d   1     -20.951  24.109  20.304  0.00  0.00    -0.317 OA
BRANCH  19  20
ATOM     20  C   UNL d   1     -20.112  25.007  21.034  0.00  0.00     0.174 C 
ATOM     21  C   UNL d   1     -19.165  24.206  21.929  0.00  0.00     0.034 C 
ENDBRANCH  19  20
ENDBRANCH  17  19
ENDBRANCH   1  17
BRANCH   5  22
ATOM     22  C   UNL d   1     -23.033  24.759  23.095  0.00  0.00    -0.006 A 
ATOM     23  C   UNL d   1     -22.015  24.365  23.963  0.00  0.00     0.014 A 
ATOM     24  C   UNL d   1     -21.463  25.280  24.836  0.00  0.00     0.001 A 
ATOM     25  C   UNL d   1     -21.918  26.588  24.850  0.00  0.00     0.000 A 
ATOM     26  C   UNL d   1     -22.927  26.984  23.992  0.00  0.00     0.001 A 
ATOM     27  C   UNL d   1     -23.482  26.079  23.111  0.00  0.00     0.014 A 
ENDBRANCH   5  22
TORSDOF 6
ENDMDL
