MODEL 1
REMARK VINA RESULT:     -10.9      0.000      0.000
REMARK  5 active torsions:
REMARK  status: ('A' for Active; 'I' for Inactive)
REMARK    1  A    between atoms: C_5  and  N_6 
REMARK    2  A    between atoms: N_6  and  C_7 
REMARK    3  A    between atoms: C_10  and  C_11 
REMARK    4  A    between atoms: C_21  and  C_22 
REMARK    5  A    between atoms: C_22  and  O_24 
ROOT
ATOM      1  C   UNL d   1     -24.879  22.529  22.151  0.00  0.00     0.050 A 
ATOM      2  C   UNL d   1     -25.334  23.389  23.152  0.00  0.00     0.033 A 
ATOM      3  C   UNL d   1     -26.642  23.265  23.580  0.00  0.00     0.035 A 
ATOM      4  C   UNL d   1     -27.458  22.293  23.002  0.00  0.00     0.072 A 
ATOM      5  N   UNL d   1     -26.988  21.490  22.056  0.00  0.00    -0.258 NA
ATOM      6  C   UNL d   1     -25.749  21.585  21.621  0.00  0.00     0.146 A 
ENDROOT
BRANCH   1   7
ATOM      7  N   UNL d   1     -23.564  22.618  21.689  0.00  0.00    -0.354 N 
ATOM      8  H   UNL d   1     -23.271  22.063  20.949  0.00  0.00     0.166 HD
BRANCH   7   9
ATOM      9  C   UNL d   1     -22.674  23.500  22.288  0.00  0.00     0.049 A 
ATOM     10  C   UNL d   1     -22.308  23.327  23.618  0.00  0.00     0.031 A 
ATOM     11  C   UNL d   1     -21.419  24.200  24.209  0.00  0.00     0.009 A 
ATOM     12  C   UNL d   1     -20.893  25.261  23.489  0.00  0.00    -0.061 A 
ATOM     13  C   UNL d   1     -19.927  26.211  24.150  0.00  0.00     0.048 C 
ATOM     14  C   UNL d   1     -21.247  25.453  22.172  0.00  0.00     0.027 A 
ATOM     15  C   UNL d   1     -22.142  24.573  21.556  0.00  0.00     0.064 A 
BRANCH  15  16
ATOM     16  C   UNL d   1     -22.526  24.773  20.148  0.00  0.00     0.178 C 
ATOM     17  O   UNL d   1     -21.794  25.392  19.400  0.00  0.00    -0.646 OA
BRANCH  16  18
ATOM     18  O   UNL d   1     -23.689  24.270  19.688  0.00  0.00    -0.773 OA
ATOM     19  H   UNL d   1     -24.385  24.904  19.468  0.00  0.00     0.167 HD
ENDBRANCH  16  18
ENDBRANCH  15  16
ENDBRANCH   7   9
ENDBRANCH   1   7
BRANCH   4  20
ATOM     20  C   UNL d   1     -28.863  22.152  23.453  0.00  0.00     0.070 A 
ATOM     21  C   UNL d   1     -29.143  21.728  24.753  0.00  0.00     0.132 A 
ATOM     22  C   UNL d   1     -30.455  21.598  25.168  0.00  0.00     0.043 A 
ATOM     23  F   UNL d   1     -28.133  21.445  25.605  0.00  0.00    -0.205 F 
ATOM     24  C   UNL d   1     -31.490  21.887  24.297  0.00  0.00     0.006 A 
ATOM     25  C   UNL d   1     -31.220  22.307  23.007  0.00  0.00     0.043 A 
ATOM     26  C   UNL d   1     -29.912  22.441  22.580  0.00  0.00     0.132 A 
ATOM     27  F   UNL d   1     -29.650  22.858  21.321  0.00  0.00    -0.205 F 
ENDBRANCH   4  20
TORSDOF 5
ENDMDL
