MODEL 1
REMARK VINA RESULT:     -10.6      0.000      0.000
REMARK  6 active torsions:
REMARK  status: ('A' for Active; 'I' for Inactive)
REMARK       I    between atoms: N_2  and  C_4 
REMARK    1  A    between atoms: C_4  and  C_6 
REMARK    2  A    between atoms: C_12  and  C_13 
REMARK    3  A    between atoms: C_13  and  C_14 
REMARK    4  A    between atoms: C_14  and  C_15 
REMARK    5  A    between atoms: CA_16  and  C_17 
REMARK    6  A    between atoms: C_17  and  OXT_19 
ROOT
ATOM      1  C   UNL d   1     -28.431  21.479  23.536  0.00  0.00     0.043 C 
ENDROOT
BRANCH   1   2
ATOM      2  C   UNL d   1     -27.157  22.121  23.052  0.00  0.00    -0.057 A 
ATOM      3  C   UNL d   1     -26.648  21.769  21.839  0.00  0.00     0.019 A 
ATOM      4  C   UNL d   1     -25.459  22.365  21.384  0.00  0.00    -0.024 A 
ATOM      5  C   UNL d   1     -24.906  22.024  20.138  0.00  0.00     0.012 A 
ATOM      6  C   UNL d   1     -24.810  23.325  22.198  0.00  0.00    -0.010 A 
ATOM      7  C   UNL d   1     -23.752  22.615  19.717  0.00  0.00     0.002 A 
ATOM      8  C   UNL d   1     -23.096  23.555  20.504  0.00  0.00     0.018 A 
ATOM      9  C   UNL d   1     -23.610  23.925  21.738  0.00  0.00     0.043 A 
ATOM     10  C   UNL d   1     -25.362  23.663  23.440  0.00  0.00     0.014 A 
ATOM     11  C   UNL d   1     -26.517  23.065  23.850  0.00  0.00     0.008 A 
BRANCH   9  12
ATOM     12  C   UNL d   1     -22.914  24.928  22.565  0.00  0.00     0.253 C 
ATOM     13  N   UNL d   1     -21.970  24.538  23.444  0.00  0.00    -0.357 N 
ATOM     14  C   UNL d   1     -21.202  25.540  24.187  0.00  0.00     0.152 C 
ATOM     15  C   UNL d   1     -21.712  23.111  23.657  0.00  0.00     0.152 C 
ATOM     16  O   UNL d   1     -23.192  26.106  22.455  0.00  0.00    -0.267 OA
ENDBRANCH   9  12
ENDBRANCH   1   2
BRANCH   1  17
ATOM     17  C   UNL d   1     -29.503  22.555  23.727  0.00  0.00     0.051 C 
BRANCH  17  18
ATOM     18  C   UNL d   1     -30.829  22.037  23.235  0.00  0.00     0.044 A 
ATOM     19  C   UNL d   1     -31.230  22.207  21.833  0.00  0.00     0.258 A 
ATOM     20  N   UNL d   1     -32.424  21.723  21.434  0.00  0.00    -0.275 N 
ATOM     21  O   UNL d   1     -30.497  22.774  21.044  0.00  0.00    -0.267 OA
ATOM     22  C   UNL d   1     -33.235  21.103  22.310  0.00  0.00     0.327 A 
ATOM     23  H   UNL d   1     -32.703  21.826  20.510  0.00  0.00     0.173 HD
ATOM     24  N   UNL d   1     -32.891  20.939  23.598  0.00  0.00    -0.302 N 
ATOM     25  O   UNL d   1     -34.308  20.680  21.926  0.00  0.00    -0.247 OA
ATOM     26  CA  UNL d   1     -31.685  21.402  24.079  0.00  0.00     0.122 A 
ATOM     27  H   UNL d   1     -33.502  20.487  24.200  0.00  0.00     0.171 HD
BRANCH  26  28
ATOM     28  C   UNL d   1     -31.325  21.211  25.504  0.00  0.00     0.194 C 
ATOM     29  O   UNL d   1     -31.633  22.051  26.326  0.00  0.00    -0.645 OA
BRANCH  28  30
ATOM     30  OXT UNL d   1     -30.655  20.108  25.888  0.00  0.00    -0.772 OA
ATOM     31  HXT UNL d   1     -29.950  20.226  26.538  0.00  0.00     0.167 HD
ENDBRANCH  28  30
ENDBRANCH  26  28
ENDBRANCH  17  18
ENDBRANCH   1  17
TORSDOF 6
ENDMDL
