MODEL 1
REMARK VINA RESULT:     -12.5      0.000      0.000
REMARK  7 active torsions:
REMARK  status: ('A' for Active; 'I' for Inactive)
REMARK    1  A    between atoms: C_2  and  C_3 
REMARK    2  A    between atoms: C_3  and  O_4 
REMARK    3  A    between atoms: O_4  and  C_5 
REMARK    4  A    between atoms: C_9  and  C_10 
REMARK    5  A    between atoms: C_15  and  N_16 
REMARK       I    between atoms: N_16  and  C_17 
REMARK    6  A    between atoms: C_17  and  C_19 
REMARK    7  A    between atoms: C_20  and  O_21 
ROOT
ATOM      1  C   UNL d   1     -24.349  23.333  22.220  0.00  0.00     0.058 A 
ATOM      2  C   UNL d   1     -24.992  23.930  23.305  0.00  0.00     0.171 A 
ATOM      3  F   UNL d   1     -24.422  24.980  23.936  0.00  0.00    -0.202 F 
ATOM      4  C   UNL d   1     -26.212  23.444  23.736  0.00  0.00     0.185 A 
ATOM      5  F   UNL d   1     -26.835  24.022  24.787  0.00  0.00    -0.200 F 
ATOM      6  C   UNL d   1     -26.801  22.364  23.088  0.00  0.00     0.119 A 
ATOM      7  C   UNL d   1     -26.160  21.765  22.009  0.00  0.00     0.185 A 
ATOM      8  F   UNL d   1     -26.732  20.711  21.385  0.00  0.00    -0.200 F 
ATOM      9  C   UNL d   1     -24.941  22.248  21.571  0.00  0.00     0.171 A 
ATOM     10  F   UNL d   1     -24.321  21.668  20.521  0.00  0.00    -0.202 F 
ENDROOT
BRANCH   6  11
ATOM     11  N   UNL d   1     -28.037  21.875  23.526  0.00  0.00    -0.317 N 
ATOM     12  C   UNL d   1     -29.180  22.426  23.071  0.00  0.00     0.263 C 
ATOM     13  O   UNL d   1     -29.139  23.285  22.209  0.00  0.00    -0.267 OA
ATOM     14  H   UNL d   1     -28.072  21.137  24.154  0.00  0.00     0.169 HD
BRANCH  12  15
ATOM     15  C   UNL d   1     -30.468  21.991  23.610  0.00  0.00     0.115 A 
ATOM     16  C   UNL d   1     -31.670  21.832  22.891  0.00  0.00     0.078 A 
ATOM     17  N   UNL d   1     -32.615  21.412  23.783  0.00  0.00    -0.242 N 
ATOM     18  C   UNL d   1     -32.004  22.018  21.545  0.00  0.00     0.033 A 
ATOM     19  N   UNL d   1     -32.012  21.319  25.044  0.00  0.00    -0.141 NA
ATOM     20  C   UNL d   1     -33.889  21.170  23.364  0.00  0.00     0.119 A 
ATOM     21  C   UNL d   1     -30.749  21.658  24.952  0.00  0.00     0.200 A 
ATOM     22  C   UNL d   1     -34.235  21.350  22.070  0.00  0.00     0.019 A 
ATOM     23  C   UNL d   1     -33.283  21.777  21.135  0.00  0.00     0.004 A 
BRANCH  21  24
ATOM     24  O   UNL d   1     -29.859  21.682  25.978  0.00  0.00    -0.343 OA
ATOM     25  H   UNL d   1     -30.267  21.775  26.850  0.00  0.00     0.219 HD
ENDBRANCH  21  24
ENDBRANCH  12  15
ENDBRANCH   6  11
BRANCH   1  26
ATOM     26  C   UNL d   1     -23.040  23.851  21.756  0.00  0.00    -0.017 A 
ATOM     27  C   UNL d   1     -22.925  24.429  20.492  0.00  0.00     0.012 A 
ATOM     28  C   UNL d   1     -21.705  24.912  20.063  0.00  0.00     0.004 A 
ATOM     29  C   UNL d   1     -20.595  24.825  20.883  0.00  0.00     0.037 A 
ATOM     30  C   UNL d   1     -20.701  24.251  22.143  0.00  0.00     0.069 A 
ATOM     31  C   UNL d   1     -21.922  23.770  22.584  0.00  0.00     0.049 A 
BRANCH  30  32
ATOM     32  O   UNL d   1     -19.608  24.169  22.946  0.00  0.00    -0.351 OA
BRANCH  32  33
ATOM     33  C   UNL d   1     -19.730  24.706  24.264  0.00  0.00     0.175 C 
BRANCH  33  34
ATOM     34  C   UNL d   1     -19.742  26.235  24.193  0.00  0.00     0.022 C 
ATOM     35  C   UNL d   1     -21.080  26.760  24.718  0.00  0.00     0.007 C 
ENDBRANCH  33  34
ENDBRANCH  32  33
ENDBRANCH  30  32
ENDBRANCH   1  26
TORSDOF 7
ENDMDL
