MODEL 1
REMARK VINA RESULT:      -8.6      0.000      0.000
REMARK  7 active torsions:
REMARK  status: ('A' for Active; 'I' for Inactive)
REMARK    1  A    between atoms: C_2  and  N_3 
REMARK    2  A    between atoms: C_4  and  C_5 
REMARK    3  A    between atoms: C_5  and  O_6 
REMARK    4  A    between atoms: N_8  and  C_9 
REMARK    5  A    between atoms: C_12  and  C_13 
REMARK    6  A    between atoms: N_17  and  C_18 
REMARK    7  A    between atoms: C_23  and  O_24 
ROOT
ATOM      1  C   UNL d   1     -28.841  22.214  22.215  0.00  0.00     0.103 A 
ATOM      2  C   UNL d   1     -28.204  23.053  23.115  0.00  0.00     0.048 A 
ATOM      3  C   UNL d   1     -26.824  23.227  23.027  0.00  0.00    -0.010 A 
ATOM      4  C   UNL d   1     -26.095  24.101  23.949  0.00  0.00    -0.027 A 
ATOM      5  C   UNL d   1     -24.765  24.233  23.819  0.00  0.00     0.109 A 
ATOM      6  N   UNL d   1     -24.055  23.577  22.853  0.00  0.00    -0.286 N 
ATOM      7  C   UNL d   1     -24.644  22.758  21.959  0.00  0.00     0.263 A 
ATOM      8  O   UNL d   1     -23.978  22.194  21.108  0.00  0.00    -0.267 OA
ATOM      9  C   UNL d   1     -26.093  22.547  22.025  0.00  0.00     0.046 A 
ATOM     10  C   UNL d   1     -26.756  21.706  21.130  0.00  0.00     0.062 A 
ATOM     11  C   UNL d   1     -28.111  21.545  21.228  0.00  0.00     0.146 A 
ATOM     12  F   UNL d   1     -28.751  20.731  20.362  0.00  0.00    -0.204 F 
ENDROOT
BRANCH   1  13
ATOM     13  N   UNL d   1     -30.224  22.033  22.295  0.00  0.00    -0.178 N 
ATOM     14  N   UNL d   1     -31.134  22.101  21.231  0.00  0.00    -0.147 NA
ATOM     15  C   UNL d   1     -32.320  21.880  21.700  0.00  0.00     0.154 A 
ATOM     16  N   UNL d   1     -32.228  21.666  23.054  0.00  0.00    -0.283 N 
ATOM     17  C   UNL d   1     -30.931  21.756  23.410  0.00  0.00     0.351 A 
ATOM     18  O   UNL d   1     -30.481  21.617  24.534  0.00  0.00    -0.244 OA
BRANCH  15  19
ATOM     19  C   UNL d   1     -33.592  21.862  20.894  0.00  0.00     0.244 C 
BRANCH  19  20
ATOM     20  O   UNL d   1     -34.471  22.885  21.368  0.00  0.00    -0.393 OA
ATOM     21  H   UNL d   1     -35.206  22.555  21.904  0.00  0.00     0.209 HD
ENDBRANCH  19  20
ENDBRANCH  15  19
BRANCH  16  22
ATOM     22  C   UNL d   1     -33.347  21.381  23.955  0.00  0.00     0.131 C 
ATOM     23  C   UNL d   1     -33.342  19.895  24.320  0.00  0.00     0.027 C 
ENDBRANCH  16  22
ENDBRANCH   1  13
BRANCH   4  24
ATOM     24  C   UNL d   1     -26.830  24.846  25.034  0.00  0.00     0.013 C 
ATOM     25  C   UNL d   1     -27.054  23.916  26.228  0.00  0.00     0.015 C 
ATOM     26  C   UNL d   1     -26.002  26.054  25.474  0.00  0.00     0.015 C 
ENDBRANCH   4  24
BRANCH   6  27
ATOM     27  C   UNL d   1     -22.669  23.767  22.784  0.00  0.00     0.075 A 
ATOM     28  C   UNL d   1     -22.120  24.537  21.760  0.00  0.00     0.095 A 
ATOM     29  C   UNL d   1     -20.747  24.722  21.697  0.00  0.00     0.039 A 
ATOM     30  C   UNL d   1     -19.928  24.146  22.650  0.00  0.00     0.003 A 
ATOM     31  C   UNL d   1     -20.473  23.382  23.666  0.00  0.00     0.002 A 
ATOM     32  C   UNL d   1     -21.840  23.192  23.736  0.00  0.00     0.033 A 
BRANCH  28  33
ATOM     33  O   UNL d   1     -22.927  25.107  20.827  0.00  0.00    -0.354 OA
ATOM     34  C   UNL d   1     -22.530  24.979  19.460  0.00  0.00     0.210 C 
ENDBRANCH  28  33
ENDBRANCH   6  27
TORSDOF 7
ENDMDL
