MODEL 1
REMARK VINA RESULT:      -9.7      0.000      0.000
REMARK  10 active torsions:
REMARK  status: ('A' for Active; 'I' for Inactive)
REMARK    1  A    between atoms: C_2  and  N_3 
REMARK    2  A    between atoms: C_4  and  C_5 
REMARK    3  A    between atoms: C_5  and  O_6 
REMARK    4  A    between atoms: N_8  and  C_9 
REMARK    5  A    between atoms: C_11  and  O_12 
REMARK    6  A    between atoms: O_12  and  C_13 
REMARK    7  A    between atoms: C_13  and  C_15 
REMARK    8  A    between atoms: C_19  and  C_20 
REMARK       I    between atoms: C_20  and  N_22 
REMARK    9  A    between atoms: N_22  and  C_23 
REMARK   10  A    between atoms: C_25  and  O_26 
ROOT
ATOM      1  C   UNL d   1     -26.646  23.445  23.624  0.00  0.00     0.197 A 
ATOM      2  N   UNL d   1     -25.778  22.983  22.738  0.00  0.00    -0.201 NA
ATOM      3  C   UNL d   1     -24.564  23.492  22.622  0.00  0.00     0.183 A 
ATOM      4  C   UNL d   1     -24.153  24.551  23.446  0.00  0.00     0.088 A 
ATOM      5  C   UNL d   1     -25.051  25.057  24.399  0.00  0.00     0.068 A 
ATOM      6  C   UNL d   1     -26.311  24.496  24.478  0.00  0.00     0.165 A 
ATOM      7  F   UNL d   1     -27.207  24.956  25.378  0.00  0.00    -0.202 F 
ENDROOT
BRANCH   4   8
ATOM      8  C   UNL d   1     -22.800  25.117  23.319  0.00  0.00     0.260 C 
ATOM      9  O   UNL d   1     -22.602  26.055  22.572  0.00  0.00    -0.267 OA
ATOM     10  N   UNL d   1     -21.781  24.595  24.032  0.00  0.00    -0.322 N 
ATOM     11  H   UNL d   1     -21.922  23.798  24.566  0.00  0.00     0.169 HD
BRANCH  10  12
ATOM     12  C   UNL d   1     -20.527  25.204  24.002  0.00  0.00     0.046 A 
ATOM     13  C   UNL d   1     -20.222  26.255  24.866  0.00  0.00    -0.018 A 
ATOM     14  C   UNL d   1     -18.969  26.829  24.811  0.00  0.00     0.128 A 
ATOM     15  C   UNL d   1     -21.247  26.756  25.852  0.00  0.00     0.052 C 
ATOM     16  N   UNL d   1     -18.063  26.399  23.952  0.00  0.00    -0.236 NA
ATOM     17  C   UNL d   1     -18.314  25.406  23.112  0.00  0.00     0.165 A 
ATOM     18  C   UNL d   1     -19.550  24.780  23.106  0.00  0.00     0.088 A 
BRANCH  17  19
ATOM     19  O   UNL d   1     -17.350  25.000  22.249  0.00  0.00    -0.339 OA
ATOM     20  C   UNL d   1     -16.074  25.637  22.352  0.00  0.00     0.211 C 
ENDBRANCH  17  19
ENDBRANCH  10  12
ENDBRANCH   4   8
BRANCH   3  21
ATOM     21  O   UNL d   1     -23.708  22.987  21.701  0.00  0.00    -0.319 OA
BRANCH  21  22
ATOM     22  C   UNL d   1     -23.821  23.489  20.368  0.00  0.00     0.234 C 
ATOM     23  C   UNL d   1     -22.434  23.870  19.846  0.00  0.00     0.049 C 
BRANCH  22  24
ATOM     24  C   UNL d   1     -24.426  22.411  19.467  0.00  0.00     0.413 C 
ATOM     25  F   UNL d   1     -24.557  22.908  18.166  0.00  0.00    -0.168 F 
ATOM     26  F   UNL d   1     -23.591  21.289  19.455  0.00  0.00    -0.168 F 
ATOM     27  F   UNL d   1     -25.686  22.048  19.956  0.00  0.00    -0.168 F 
ENDBRANCH  22  24
ENDBRANCH  21  22
ENDBRANCH   3  21
BRANCH   1  28
ATOM     28  N   UNL d   1     -27.913  22.875  23.705  0.00  0.00    -0.159 N 
ATOM     29  N   UNL d   1     -28.952  23.027  22.776  0.00  0.00    -0.145 NA
ATOM     30  C   UNL d   1     -29.969  22.344  23.197  0.00  0.00     0.154 A 
ATOM     31  N   UNL d   1     -29.640  21.746  24.388  0.00  0.00    -0.283 N 
ATOM     32  C   UNL d   1     -28.371  22.079  24.694  0.00  0.00     0.352 A 
ATOM     33  O   UNL d   1     -27.751  21.726  25.681  0.00  0.00    -0.244 OA
BRANCH  30  34
ATOM     34  C   UNL d   1     -31.299  22.230  22.495  0.00  0.00     0.244 C 
BRANCH  34  35
ATOM     35  O   UNL d   1     -31.100  22.312  21.082  0.00  0.00    -0.393 OA
ATOM     36  H   UNL d   1     -30.779  21.493  20.681  0.00  0.00     0.209 HD
ENDBRANCH  34  35
ENDBRANCH  30  34
BRANCH  31  37
ATOM     37  C   UNL d   1     -30.520  20.893  25.191  0.00  0.00     0.131 C 
ATOM     38  C   UNL d   1     -31.659  21.735  25.770  0.00  0.00     0.027 C 
ENDBRANCH  31  37
ENDBRANCH   1  28
TORSDOF 10
ENDMDL
