MODEL 1
REMARK VINA RESULT:      -9.8      0.000      0.000
REMARK  9 active torsions:
REMARK  status: ('A' for Active; 'I' for Inactive)
REMARK    1  A    between atoms: C_2  and  C_3 
REMARK    2  A    between atoms: C_3  and  C_4 
REMARK    3  A    between atoms: C_4  and  O_6 
REMARK    4  A    between atoms: O_6  and  C_7 
REMARK    5  A    between atoms: C_9  and  N_10 
REMARK    6  A    between atoms: C_12  and  C_13 
REMARK    7  A    between atoms: C_22  and  C_23 
REMARK       I    between atoms: C_23  and  N_25 
REMARK    8  A    between atoms: N_25  and  C_26 
REMARK    9  A    between atoms: C_29  and  N_30 
ROOT
ATOM      1  C   UNL d   1     -26.913  23.000  23.286  0.00  0.00     0.087 A 
ATOM      2  C   UNL d   1     -28.290  22.850  23.303  0.00  0.00     0.073 A 
ATOM      3  C   UNL d   1     -28.918  22.102  22.318  0.00  0.00     0.104 A 
ATOM      4  C   UNL d   1     -28.169  21.506  21.303  0.00  0.00     0.146 A 
ATOM      5  F   UNL d   1     -28.789  20.784  20.344  0.00  0.00    -0.204 F 
ATOM      6  C   UNL d   1     -26.801  21.653  21.274  0.00  0.00     0.064 A 
ATOM      7  C   UNL d   1     -26.158  22.402  22.266  0.00  0.00     0.068 A 
ENDROOT
BRANCH   7   8
ATOM      8  C   UNL d   1     -24.694  22.563  22.240  0.00  0.00     0.259 C 
ATOM      9  O   UNL d   1     -23.982  21.605  22.005  0.00  0.00    -0.267 OA
ATOM     10  N   UNL d   1     -24.144  23.770  22.476  0.00  0.00    -0.322 N 
ATOM     11  H   UNL d   1     -24.709  24.520  22.722  0.00  0.00     0.169 HD
BRANCH  10  12
ATOM     12  C   UNL d   1     -22.759  23.942  22.366  0.00  0.00     0.041 A 
ATOM     13  C   UNL d   1     -22.192  24.238  21.134  0.00  0.00    -0.033 A 
ATOM     14  C   UNL d   1     -20.826  24.413  21.026  0.00  0.00     0.038 A 
ATOM     15  C   UNL d   1     -23.067  24.376  19.915  0.00  0.00     0.050 C 
ATOM     16  C   UNL d   1     -20.018  24.281  22.148  0.00  0.00     0.026 A 
ATOM     17  C   UNL d   1     -20.586  23.979  23.380  0.00  0.00     0.031 A 
ATOM     18  C   UNL d   1     -21.951  23.811  23.488  0.00  0.00     0.032 A 
BRANCH  16  19
ATOM     19  N   UNL d   1     -18.634  24.451  22.038  0.00  0.00    -0.399 N 
ATOM     20  H   UNL d   1     -18.246  24.731  21.195  0.00  0.00     0.156 HD
ATOM     21  H   UNL d   1     -18.063  24.289  22.806  0.00  0.00     0.156 HD
ENDBRANCH  16  19
ENDBRANCH  10  12
ENDBRANCH   7   8
BRANCH   1  22
ATOM     22  O   UNL d   1     -26.297  23.729  24.252  0.00  0.00    -0.345 OA
BRANCH  22  23
ATOM     23  C   UNL d   1     -27.053  24.016  25.429  0.00  0.00     0.128 C 
ATOM     24  C   UNL d   1     -26.650  25.388  25.972  0.00  0.00     0.040 C 
BRANCH  23  25
ATOM     25  C   UNL d   1     -26.774  22.946  26.488  0.00  0.00     0.058 C 
BRANCH  25  26
ATOM     26  C   UNL d   1     -28.075  22.494  27.100  0.00  0.00    -0.034 C 
ATOM     27  C   UNL d   1     -28.873  21.702  26.427  0.00  0.00     0.007 C 
ENDBRANCH  25  26
ENDBRANCH  23  25
ENDBRANCH  22  23
ENDBRANCH   1  22
BRANCH   3  28
ATOM     28  N   UNL d   1     -30.306  21.948  22.340  0.00  0.00    -0.178 N 
ATOM     29  C   UNL d   1     -31.150  22.144  21.305  0.00  0.00     0.351 A 
ATOM     30  N   UNL d   1     -32.398  21.893  21.750  0.00  0.00    -0.289 N 
ATOM     31  O   UNL d   1     -30.841  22.488  20.179  0.00  0.00    -0.244 OA
ATOM     32  C   UNL d   1     -32.321  21.529  23.071  0.00  0.00     0.130 A 
ATOM     33  C   UNL d   1     -33.626  21.987  20.956  0.00  0.00     0.162 C 
ATOM     34  N   UNL d   1     -31.080  21.556  23.441  0.00  0.00    -0.149 NA
BRANCH  32  35
ATOM     35  C   UNL d   1     -33.489  21.159  23.948  0.00  0.00     0.076 C 
ATOM     36  C   UNL d   1     -33.066  20.058  24.923  0.00  0.00     0.013 C 
ENDBRANCH  32  35
ENDBRANCH   3  28
TORSDOF 9
ENDMDL
