MODEL 1
REMARK VINA RESULT:     -10.8      0.000      0.000
REMARK  6 active torsions:
REMARK  status: ('A' for Active; 'I' for Inactive)
REMARK    1  A    between atoms: C_2  and  O_3 
REMARK    2  A    between atoms: C_2  and  C_34 
REMARK    3  A    between atoms: O_3  and  C_4 
REMARK    4  A    between atoms: C_6  and  N_7 
REMARK    5  A    between atoms: C_20  and  C_21 
REMARK       I    between atoms: C_21  and  N_23 
REMARK    6  A    between atoms: N_23  and  C_24 
ROOT
ATOM      1  C   UNL d   1     -24.717  23.336  22.647  0.00  0.00     0.087 A 
ATOM      2  C   UNL d   1     -25.980  22.796  22.817  0.00  0.00     0.073 A 
ATOM      3  C   UNL d   1     -26.835  23.318  23.778  0.00  0.00     0.104 A 
ATOM      4  C   UNL d   1     -26.423  24.379  24.582  0.00  0.00     0.146 A 
ATOM      5  F   UNL d   1     -27.260  24.878  25.519  0.00  0.00    -0.204 F 
ATOM      6  C   UNL d   1     -25.167  24.920  24.425  0.00  0.00     0.064 A 
ATOM      7  C   UNL d   1     -24.301  24.404  23.455  0.00  0.00     0.068 A 
ENDROOT
BRANCH   7   8
ATOM      8  C   UNL d   1     -22.956  24.980  23.284  0.00  0.00     0.259 C 
ATOM      9  O   UNL d   1     -22.817  26.033  22.691  0.00  0.00    -0.267 OA
ATOM     10  N   UNL d   1     -21.881  24.341  23.786  0.00  0.00    -0.321 N 
ATOM     11  H   UNL d   1     -21.997  23.534  24.311  0.00  0.00     0.169 HD
BRANCH  10  12
ATOM     12  C   UNL d   1     -20.596  24.845  23.551  0.00  0.00     0.064 A 
ATOM     13  C   UNL d   1     -20.014  25.737  24.458  0.00  0.00     0.088 A 
ATOM     14  C   UNL d   1     -18.722  26.233  24.209  0.00  0.00     0.013 A 
ATOM     15  N   UNL d   1     -20.432  26.299  25.637  0.00  0.00    -0.275 N 
ATOM     16  C   UNL d   1     -18.034  25.828  23.057  0.00  0.00     0.015 A 
ATOM     17  C   UNL d   1     -18.403  27.101  25.282  0.00  0.00     0.152 A 
ATOM     18  C   UNL d   1     -18.619  24.957  22.185  0.00  0.00     0.003 A 
ATOM     19  C   UNL d   1     -19.893  24.458  22.426  0.00  0.00     0.032 A 
ATOM     20  N   UNL d   1     -19.408  27.130  26.108  0.00  0.00    -0.186 NA
ATOM     21  H   UNL d   1     -21.287  26.147  26.070  0.00  0.00     0.189 HD
ENDBRANCH  10  12
ENDBRANCH   7   8
BRANCH   1  22
ATOM     22  O   UNL d   1     -23.882  22.829  21.705  0.00  0.00    -0.336 OA
BRANCH  22  23
ATOM     23  C   UNL d   1     -23.962  23.394  20.396  0.00  0.00     0.232 C 
ATOM     24  C   UNL d   1     -22.567  23.825  19.938  0.00  0.00     0.049 C 
BRANCH  23  25
ATOM     25  C   UNL d   1     -24.517  22.352  19.423  0.00  0.00     0.413 C 
ATOM     26  F   UNL d   1     -24.581  22.901  18.138  0.00  0.00    -0.168 F 
ATOM     27  F   UNL d   1     -23.679  21.233  19.409  0.00  0.00    -0.168 F 
ATOM     28  F   UNL d   1     -25.799  21.970  19.831  0.00  0.00    -0.168 F 
ENDBRANCH  23  25
ENDBRANCH  22  23
ENDBRANCH   1  22
BRANCH   3  29
ATOM     29  N   UNL d   1     -28.111  22.773  23.943  0.00  0.00    -0.178 N 
ATOM     30  C   UNL d   1     -28.525  22.005  24.974  0.00  0.00     0.351 A 
ATOM     31  N   UNL d   1     -29.820  21.717  24.764  0.00  0.00    -0.284 N 
ATOM     32  O   UNL d   1     -27.850  21.640  25.919  0.00  0.00    -0.244 OA
ATOM     33  C   UNL d   1     -30.202  22.282  23.564  0.00  0.00     0.131 A 
ATOM     34  C   UNL d   1     -30.720  20.956  25.639  0.00  0.00     0.135 C 
ATOM     35  N   UNL d   1     -29.198  22.920  23.068  0.00  0.00    -0.149 NA
ATOM     36  C   UNL d   1     -31.585  22.139  22.971  0.00  0.00     0.081 C 
ATOM     37  C   UNL d   1     -32.538  21.698  24.091  0.00  0.00     0.009 C 
ATOM     38  C   UNL d   1     -31.929  20.495  24.818  0.00  0.00     0.021 C 
ENDBRANCH   3  29
TORSDOF 6
ENDMDL
