MODEL 1
REMARK VINA RESULT:     -10.1      0.000      0.000
REMARK  9 active torsions:
REMARK  status: ('A' for Active; 'I' for Inactive)
REMARK    1  A    between atoms: C_2  and  C_4 
REMARK    2  A    between atoms: C_4  and  O_5 
REMARK    3  A    between atoms: O_5  and  C_6 
REMARK    4  A    between atoms: C_9  and  C_10 
REMARK    5  A    between atoms: C_12  and  C_13 
REMARK    6  A    between atoms: C_13  and  O_15 
REMARK    7  A    between atoms: C_24  and  O_25 
REMARK    8  A    between atoms: O_25  and  C_26 
REMARK    9  A    between atoms: C_26  and  C_27 
ROOT
ATOM      1  C   UNL d   1     -24.632  23.943  23.426  0.00  0.00     0.102 A 
ATOM      2  C   UNL d   1     -25.613  24.654  24.101  0.00  0.00     0.040 A 
ATOM      3  C   UNL d   1     -26.915  24.199  24.112  0.00  0.00     0.017 A 
ATOM      4  C   UNL d   1     -27.245  23.013  23.455  0.00  0.00    -0.004 A 
ATOM      5  C   UNL d   1     -26.259  22.297  22.777  0.00  0.00     0.053 A 
ATOM      6  C   UNL d   1     -24.956  22.761  22.764  0.00  0.00     0.102 A 
ENDROOT
BRANCH   4   7
ATOM      7  C   UNL d   1     -28.641  22.519  23.473  0.00  0.00     0.069 A 
ATOM      8  N   UNL d   1     -29.367  22.623  22.380  0.00  0.00    -0.247 NA
ATOM      9  C   UNL d   1     -30.632  22.201  22.319  0.00  0.00     0.068 A 
ATOM     10  C   UNL d   1     -31.238  21.615  23.458  0.00  0.00     0.010 A 
ATOM     11  C   UNL d   1     -31.382  22.325  21.136  0.00  0.00     0.032 A 
ATOM     12  C   UNL d   1     -30.451  21.488  24.686  0.00  0.00     0.052 A 
ATOM     13  C   UNL d   1     -32.564  21.172  23.389  0.00  0.00     0.015 A 
ATOM     14  C   UNL d   1     -29.147  21.960  24.658  0.00  0.00     0.051 A 
ATOM     15  C   UNL d   1     -33.260  21.309  22.226  0.00  0.00     0.001 A 
ATOM     16  C   UNL d   1     -32.669  21.885  21.103  0.00  0.00     0.002 A 
BRANCH  12  17
ATOM     17  C   UNL d   1     -31.025  20.886  25.907  0.00  0.00     0.177 C 
ATOM     18  O   UNL d   1     -31.967  21.417  26.462  0.00  0.00    -0.646 OA
BRANCH  17  19
ATOM     19  O   UNL d   1     -30.506  19.748  26.405  0.00  0.00    -0.773 OA
ATOM     20  H   UNL d   1     -29.795  19.330  25.899  0.00  0.00     0.167 HD
ENDBRANCH  17  19
ENDBRANCH  12  17
ENDBRANCH   4   7
BRANCH   6  21
ATOM     21  O   UNL d   1     -23.993  22.064  22.103  0.00  0.00    -0.348 OA
BRANCH  21  22
ATOM     22  C   UNL d   1     -24.287  21.658  20.765  0.00  0.00     0.179 C 
BRANCH  22  23
ATOM     23  C   UNL d   1     -24.298  22.885  19.852  0.00  0.00     0.002 C 
ATOM     24  C   UNL d   1     -22.941  23.588  19.924  0.00  0.00     0.011 C 
ATOM     25  C   UNL d   1     -24.567  22.445  18.411  0.00  0.00     0.011 C 
ENDBRANCH  22  23
ENDBRANCH  21  22
ENDBRANCH   6  21
BRANCH   1  26
ATOM     26  O   UNL d   1     -23.351  24.398  23.412  0.00  0.00    -0.348 OA
BRANCH  26  27
ATOM     27  C   UNL d   1     -23.147  25.743  22.976  0.00  0.00     0.179 C 
BRANCH  27  28
ATOM     28  C   UNL d   1     -21.845  26.280  23.574  0.00  0.00     0.002 C 
ATOM     29  C   UNL d   1     -22.167  27.229  24.731  0.00  0.00     0.011 C 
ATOM     30  C   UNL d   1     -21.001  25.113  24.092  0.00  0.00     0.011 C 
ENDBRANCH  27  28
ENDBRANCH  26  27
ENDBRANCH   1  26
TORSDOF 9
ENDMDL
