MODEL 1
REMARK VINA RESULT:     -11.7      0.000      0.000
REMARK  8 active torsions:
REMARK  status: ('A' for Active; 'I' for Inactive)
REMARK    1  A    between atoms: O_2  and  C_3 
REMARK    2  A    between atoms: C_5  and  C_6 
REMARK    3  A    between atoms: C_8  and  C_9 
REMARK    4  A    between atoms: C_9  and  O_11 
REMARK    5  A    between atoms: C_21  and  O_22 
REMARK    6  A    between atoms: O_22  and  C_23 
REMARK    7  A    between atoms: C_23  and  C_24 
REMARK       I    between atoms: C_24  and  N_26 
REMARK    8  A    between atoms: N_26  and  C_27 
ROOT
ATOM      1  C   UNL d   1     -25.117  22.083  21.568  0.00  0.00     0.102 A 
ATOM      2  C   UNL d   1     -26.468  21.851  21.752  0.00  0.00     0.053 A 
ATOM      3  C   UNL d   1     -27.125  22.409  22.848  0.00  0.00    -0.004 A 
ATOM      4  C   UNL d   1     -26.421  23.203  23.751  0.00  0.00     0.017 A 
ATOM      5  C   UNL d   1     -25.072  23.428  23.566  0.00  0.00     0.040 A 
ATOM      6  C   UNL d   1     -24.417  22.874  22.477  0.00  0.00     0.102 A 
ENDROOT
BRANCH   3   7
ATOM      7  C   UNL d   1     -28.573  22.163  23.049  0.00  0.00     0.069 A 
ATOM      8  N   UNL d   1     -29.385  22.269  22.017  0.00  0.00    -0.247 NA
ATOM      9  C   UNL d   1     -30.699  22.062  22.119  0.00  0.00     0.068 A 
ATOM     10  C   UNL d   1     -31.266  21.714  23.371  0.00  0.00     0.010 A 
ATOM     11  C   UNL d   1     -31.541  22.182  20.998  0.00  0.00     0.032 A 
ATOM     12  C   UNL d   1     -30.385  21.591  24.532  0.00  0.00     0.052 A 
ATOM     13  C   UNL d   1     -32.645  21.498  23.473  0.00  0.00     0.015 A 
ATOM     14  C   UNL d   1     -29.032  21.831  24.332  0.00  0.00     0.051 A 
ATOM     15  C   UNL d   1     -33.431  21.623  22.366  0.00  0.00     0.001 A 
ATOM     16  C   UNL d   1     -32.878  21.964  21.134  0.00  0.00     0.002 A 
BRANCH  12  17
ATOM     17  C   UNL d   1     -30.914  21.230  25.863  0.00  0.00     0.177 C 
ATOM     18  O   UNL d   1     -31.674  21.982  26.440  0.00  0.00    -0.646 OA
BRANCH  17  19
ATOM     19  O   UNL d   1     -30.552  20.067  26.440  0.00  0.00    -0.773 OA
ATOM     20  H   UNL d   1     -29.671  20.029  26.837  0.00  0.00     0.167 HD
ENDBRANCH  17  19
ENDBRANCH  12  17
ENDBRANCH   3   7
BRANCH   1  21
ATOM     21  O   UNL d   1     -24.473  21.541  20.500  0.00  0.00    -0.353 OA
ATOM     22  C   UNL d   1     -24.526  22.270  19.272  0.00  0.00     0.210 C 
ENDBRANCH   1  21
BRANCH   6  23
ATOM     23  O   UNL d   1     -23.089  23.101  22.295  0.00  0.00    -0.339 OA
BRANCH  23  24
ATOM     24  C   UNL d   1     -22.724  24.308  21.621  0.00  0.00     0.278 C 
BRANCH  24  25
ATOM     25  C   UNL d   1     -21.566  24.953  22.338  0.00  0.00     0.246 C 
ATOM     26  O   UNL d   1     -20.743  25.587  21.713  0.00  0.00    -0.271 OA
ATOM     27  N   UNL d   1     -21.445  24.824  23.674  0.00  0.00    -0.324 N 
ATOM     28  H   UNL d   1     -22.055  24.250  24.164  0.00  0.00     0.169 HD
BRANCH  27  29
ATOM     29  C   UNL d   1     -20.439  25.520  24.355  0.00  0.00     0.056 A 
ATOM     30  C   UNL d   1     -20.706  26.768  24.906  0.00  0.00     0.060 A 
ATOM     31  C   UNL d   1     -19.712  27.450  25.582  0.00  0.00     0.026 A 
ATOM     32 CL   UNL d   1     -22.289  27.465  24.751  0.00  0.00    -0.082 Cl
ATOM     33  C   UNL d   1     -18.451  26.897  25.701  0.00  0.00     0.002 A 
ATOM     34  C   UNL d   1     -18.180  25.658  25.149  0.00  0.00     0.002 A 
ATOM     35  C   UNL d   1     -19.171  24.968  24.477  0.00  0.00     0.031 A 
ENDBRANCH  27  29
ENDBRANCH  24  25
ENDBRANCH  23  24
ENDBRANCH   6  23
TORSDOF 8
ENDMDL
