MODEL 1
REMARK VINA RESULT:     -10.1      0.000      0.000
REMARK  6 active torsions:
REMARK  status: ('A' for Active; 'I' for Inactive)
REMARK    1  A    between atoms: O_2  and  C_3 
REMARK    2  A    between atoms: C_7  and  C_8 
REMARK    3  A    between atoms: C_12  and  N_13 
REMARK       I    between atoms: N_13  and  C_14 
REMARK    4  A    between atoms: C_14  and  C_16 
REMARK    5  A    between atoms: C_19  and  O_21 
REMARK    6  A    between atoms: C_23  and  O_24 
ROOT
ATOM      1  C   UNL d   1     -30.935  22.056  23.574  0.00  0.00     0.141 C 
ATOM      2  C   UNL d   1     -31.108  21.870  24.983  0.00  0.00     0.107 C 
ATOM      3  N   UNL d   1     -31.247  21.723  26.102  0.00  0.00    -0.191 NA
ATOM      4  C   UNL d   1     -31.992  21.898  22.730  0.00  0.00     0.065 C 
ATOM      5  C   UNL d   1     -33.345  21.526  23.279  0.00  0.00     0.077 C 
ENDROOT
BRANCH   1   6
ATOM      6  C   UNL d   1     -29.614  22.419  23.039  0.00  0.00     0.269 C 
ATOM      7  N   UNL d   1     -28.507  21.812  23.508  0.00  0.00    -0.320 N 
ATOM      8  H   UNL d   1     -28.585  21.080  24.139  0.00  0.00     0.169 HD
ATOM      9  O   UNL d   1     -29.522  23.268  22.172  0.00  0.00    -0.266 OA
BRANCH   7  10
ATOM     10  C   UNL d   1     -27.243  22.237  23.083  0.00  0.00     0.076 A 
ATOM     11  C   UNL d   1     -26.658  21.661  21.958  0.00  0.00     0.144 A 
ATOM     12  C   UNL d   1     -25.412  22.077  21.536  0.00  0.00     0.059 A 
ATOM     13  F   UNL d   1     -27.312  20.695  21.278  0.00  0.00    -0.204 F 
ATOM     14  C   UNL d   1     -24.739  23.079  22.234  0.00  0.00     0.011 A 
ATOM     15  C   UNL d   1     -25.325  23.652  23.367  0.00  0.00     0.081 A 
ATOM     16  C   UNL d   1     -26.575  23.231  23.785  0.00  0.00     0.070 A 
BRANCH  14  17
ATOM     17  C   UNL d   1     -23.401  23.532  21.780  0.00  0.00    -0.021 A 
ATOM     18  C   UNL d   1     -23.243  24.072  20.506  0.00  0.00     0.012 A 
ATOM     19  C   UNL d   1     -21.996  24.493  20.085  0.00  0.00     0.004 A 
ATOM     20  C   UNL d   1     -20.905  24.379  20.925  0.00  0.00     0.037 A 
ATOM     21  C   UNL d   1     -21.054  23.842  22.197  0.00  0.00     0.069 A 
ATOM     22  C   UNL d   1     -22.302  23.422  22.629  0.00  0.00     0.049 A 
BRANCH  21  23
ATOM     23  O   UNL d   1     -19.978  23.733  23.020  0.00  0.00    -0.356 OA
ATOM     24  C   UNL d   1     -19.873  24.688  24.079  0.00  0.00     0.210 C 
ENDBRANCH  21  23
ENDBRANCH  14  17
BRANCH  15  25
ATOM     25  O   UNL d   1     -24.670  24.625  24.054  0.00  0.00    -0.355 OA
ATOM     26  C   UNL d   1     -25.242  25.934  24.028  0.00  0.00     0.210 C 
ENDBRANCH  15  25
ENDBRANCH   7  10
ENDBRANCH   1   6
BRANCH   4  27
ATOM     27  O   UNL d   1     -31.829  22.073  21.407  0.00  0.00    -0.364 OA
ATOM     28  H   UNL d   1     -30.982  21.799  21.029  0.00  0.00     0.217 HD
ENDBRANCH   4  27
TORSDOF 6
ENDMDL
