MODEL 1
REMARK VINA RESULT:      -9.7      0.000      0.000
REMARK  3 active torsions:
REMARK  status: ('A' for Active; 'I' for Inactive)
REMARK    1  A    between atoms: C_2  and  C_4 
REMARK    2  A    between atoms: C_6  and  N_7 
REMARK    3  A    between atoms: N_7  and  C_8 
ROOT
ATOM      1  N   UNL d   1     -28.182  22.782  24.101  0.00  0.00    -0.335 N 
ATOM      2  H   UNL d   1     -28.263  22.903  25.061  0.00  0.00     0.168 HD
ENDROOT
BRANCH   1   3
ATOM      3  C   UNL d   1     -26.945  22.848  23.499  0.00  0.00     0.172 A 
ATOM      4  S   UNL d   1     -25.762  24.035  23.833  0.00  0.00    -0.046 SA
ATOM      5  C   UNL d   1     -24.673  23.299  22.660  0.00  0.00     0.078 A 
ATOM      6  C   UNL d   1     -25.314  22.210  22.120  0.00  0.00     0.054 A 
ATOM      7  N   UNL d   1     -26.512  22.009  22.600  0.00  0.00    -0.228 NA
ATOM      8  C   UNL d   1     -24.690  21.324  21.073  0.00  0.00     0.072 C 
BRANCH   5   9
ATOM      9  C   UNL d   1     -23.378  23.745  22.334  0.00  0.00     0.164 C 
ATOM     10  C   UNL d   1     -22.192  23.250  23.121  0.00  0.00     0.097 C 
ATOM     11  O   UNL d   1     -23.218  24.527  21.419  0.00  0.00    -0.292 OA
ENDBRANCH   5   9
ENDBRANCH   1   3
BRANCH   1  12
ATOM     12  C   UNL d   1     -29.323  22.541  23.331  0.00  0.00     0.035 A 
ATOM     13  C   UNL d   1     -30.487  22.135  23.946  0.00  0.00     0.041 A 
ATOM     14  C   UNL d   1     -31.632  21.894  23.169  0.00  0.00    -0.024 A 
ATOM     15  C   UNL d   1     -31.570  22.072  21.763  0.00  0.00    -0.026 A 
ATOM     16  C   UNL d   1     -32.838  21.477  23.758  0.00  0.00     0.012 A 
ATOM     17  C   UNL d   1     -30.367  22.493  21.170  0.00  0.00     0.014 A 
ATOM     18  C   UNL d   1     -32.718  21.830  20.989  0.00  0.00     0.012 A 
ATOM     19  C   UNL d   1     -29.272  22.715  21.943  0.00  0.00     0.030 A 
ATOM     20  C   UNL d   1     -33.868  21.429  21.595  0.00  0.00     0.001 A 
ATOM     21  C   UNL d   1     -33.928  21.252  22.976  0.00  0.00     0.001 A 
ENDBRANCH   1  12
TORSDOF 3
ENDMDL
