MODEL 1
REMARK VINA RESULT:      -9.9      0.000      0.000
REMARK  7 active torsions:
REMARK  status: ('A' for Active; 'I' for Inactive)
REMARK    1  A    between atoms: C_2  and  C_3 
REMARK    2  A    between atoms: C_3  and  O_5 
REMARK    3  A    between atoms: O_5  and  C_6 
REMARK    4  A    between atoms: C_8  and  N_9 
REMARK       I    between atoms: N_9  and  C_10 
REMARK    5  A    between atoms: C_10  and  C_12 
REMARK    6  A    between atoms: C_15  and  O_17 
REMARK    7  A    between atoms: C_21  and  C_22 
ROOT
ATOM      1  C   UNL d   1     -31.010  22.058  22.419  0.00  0.00     0.141 C 
ATOM      2  C   UNL d   1     -31.662  21.709  23.646  0.00  0.00     0.107 C 
ATOM      3  N   UNL d   1     -32.179  21.433  24.619  0.00  0.00    -0.191 NA
ATOM      4  C   UNL d   1     -31.684  21.961  21.238  0.00  0.00     0.065 C 
ATOM      5  C   UNL d   1     -33.115  21.489  21.223  0.00  0.00     0.077 C 
ENDROOT
BRANCH   1   6
ATOM      6  C   UNL d   1     -29.615  22.519  22.434  0.00  0.00     0.269 C 
ATOM      7  N   UNL d   1     -28.689  21.844  23.144  0.00  0.00    -0.320 N 
ATOM      8  H   UNL d   1     -28.932  21.021  23.600  0.00  0.00     0.169 HD
ATOM      9  O   UNL d   1     -29.295  23.511  21.806  0.00  0.00    -0.266 OA
BRANCH   7  10
ATOM     10  C   UNL d   1     -27.379  22.326  23.224  0.00  0.00     0.076 A 
ATOM     11  C   UNL d   1     -26.469  22.027  22.220  0.00  0.00     0.070 A 
ATOM     12  C   UNL d   1     -25.171  22.504  22.297  0.00  0.00     0.082 A 
ATOM     13  C   UNL d   1     -24.781  23.287  23.387  0.00  0.00     0.011 A 
ATOM     14  C   UNL d   1     -25.699  23.585  24.393  0.00  0.00     0.059 A 
ATOM     15  C   UNL d   1     -26.991  23.107  24.309  0.00  0.00     0.144 A 
ATOM     16  F   UNL d   1     -27.881  23.397  25.284  0.00  0.00    -0.204 F 
BRANCH  12  17
ATOM     17  O   UNL d   1     -24.279  22.211  21.314  0.00  0.00    -0.345 OA
BRANCH  17  18
ATOM     18  C   UNL d   1     -24.187  23.132  20.225  0.00  0.00     0.124 C 
ATOM     19  C   UNL d   1     -24.742  22.479  18.957  0.00  0.00     0.040 C 
BRANCH  18  20
ATOM     20  C   UNL d   1     -22.723  23.515  20.004  0.00  0.00     0.027 C 
ATOM     21  C   UNL d   1     -22.572  25.033  20.109  0.00  0.00     0.007 C 
ENDBRANCH  18  20
ENDBRANCH  17  18
ENDBRANCH  12  17
BRANCH  13  22
ATOM     22  C   UNL d   1     -23.391  23.795  23.476  0.00  0.00    -0.014 A 
ATOM     23  C   UNL d   1     -23.151  25.164  23.576  0.00  0.00    -0.012 A 
ATOM     24  C   UNL d   1     -21.853  25.632  23.659  0.00  0.00     0.123 A 
ATOM     25  C   UNL d   1     -24.305  26.133  23.593  0.00  0.00     0.052 C 
ATOM     26  C   UNL d   1     -20.792  24.741  23.642  0.00  0.00     0.043 A 
ATOM     27  F   UNL d   1     -21.618  26.959  23.757  0.00  0.00    -0.206 F 
ATOM     28  C   UNL d   1     -21.025  23.381  23.543  0.00  0.00     0.004 A 
ATOM     29  C   UNL d   1     -22.319  22.904  23.466  0.00  0.00     0.013 A 
ENDBRANCH  13  22
ENDBRANCH   7  10
ENDBRANCH   1   6
BRANCH   4  30
ATOM     30  O   UNL d   1     -31.073  22.288  20.087  0.00  0.00    -0.364 OA
ATOM     31  H   UNL d   1     -31.409  21.878  19.278  0.00  0.00     0.217 HD
ENDBRANCH   4  30
TORSDOF 7
ENDMDL
