MODEL 1
REMARK VINA RESULT:     -10.0      0.000      0.000
REMARK  7 active torsions:
REMARK  status: ('A' for Active; 'I' for Inactive)
REMARK    1  A    between atoms: C_2  and  C_3 
REMARK    2  A    between atoms: C_3  and  O_5 
REMARK    3  A    between atoms: O_5  and  C_6 
REMARK    4  A    between atoms: C_8  and  N_9 
REMARK       I    between atoms: N_9  and  C_10 
REMARK    5  A    between atoms: C_10  and  C_12 
REMARK    6  A    between atoms: C_15  and  O_17 
REMARK    7  A    between atoms: C_21  and  C_22 
ROOT
ATOM      1  C   UNL d   1     -32.265  21.243  23.840  0.00  0.00     0.141 C 
ATOM      2  C   UNL d   1     -33.032  21.144  22.635  0.00  0.00     0.107 C 
ATOM      3  N   UNL d   1     -33.640  21.064  21.678  0.00  0.00    -0.191 NA
ATOM      4  C   UNL d   1     -32.741  20.703  24.998  0.00  0.00     0.065 C 
ATOM      5  C   UNL d   1     -34.075  20.002  25.009  0.00  0.00     0.077 C 
ENDROOT
BRANCH   1   6
ATOM      6  C   UNL d   1     -30.963  21.927  23.830  0.00  0.00     0.269 C 
ATOM      7  N   UNL d   1     -29.848  21.259  24.186  0.00  0.00    -0.320 N 
ATOM      8  H   UNL d   1     -29.913  20.353  24.526  0.00  0.00     0.169 HD
ATOM      9  O   UNL d   1     -30.893  23.096  23.500  0.00  0.00    -0.266 OA
BRANCH   7  10
ATOM     10  C   UNL d   1     -28.597  21.871  24.064  0.00  0.00     0.076 A 
ATOM     11  C   UNL d   1     -28.044  22.071  22.806  0.00  0.00     0.070 A 
ATOM     12  C   UNL d   1     -26.806  22.677  22.682  0.00  0.00     0.084 A 
ATOM     13  C   UNL d   1     -26.116  23.094  23.828  0.00  0.00     0.034 A 
ATOM     14  C   UNL d   1     -26.675  22.883  25.090  0.00  0.00     0.061 A 
ATOM     15  C   UNL d   1     -27.909  22.279  25.205  0.00  0.00     0.144 A 
ATOM     16  F   UNL d   1     -28.452  22.082  26.426  0.00  0.00    -0.204 F 
BRANCH  12  17
ATOM     17  O   UNL d   1     -26.264  22.873  21.452  0.00  0.00    -0.345 OA
BRANCH  17  18
ATOM     18  C   UNL d   1     -25.788  21.716  20.760  0.00  0.00     0.124 C 
ATOM     19  C   UNL d   1     -24.904  20.890  21.697  0.00  0.00     0.040 C 
BRANCH  18  20
ATOM     20  C   UNL d   1     -24.974  22.151  19.540  0.00  0.00     0.027 C 
ATOM     21  C   UNL d   1     -23.821  23.049  19.990  0.00  0.00     0.007 C 
ENDBRANCH  18  20
ENDBRANCH  17  18
ENDBRANCH  12  17
BRANCH  13  22
ATOM     22  C   UNL d   1     -24.797  23.746  23.701  0.00  0.00     0.090 A 
ATOM     23  O   UNL d   1     -23.616  23.101  23.642  0.00  0.00    -0.309 OA
ATOM     24  C   UNL d   1     -22.595  23.975  23.528  0.00  0.00     0.086 A 
ATOM     25  C   UNL d   1     -23.145  25.268  23.512  0.00  0.00     0.000 A 
ATOM     26  C   UNL d   1     -21.218  23.823  23.433  0.00  0.00     0.038 A 
ATOM     27  C   UNL d   1     -24.595  25.084  23.621  0.00  0.00     0.052 A 
ATOM     28  C   UNL d   1     -22.313  26.383  23.400  0.00  0.00     0.014 A 
ATOM     29  C   UNL d   1     -20.959  26.211  23.307  0.00  0.00     0.001 A 
ATOM     30  C   UNL d   1     -20.411  24.937  23.324  0.00  0.00     0.003 A 
ENDBRANCH  13  22
ENDBRANCH   7  10
ENDBRANCH   1   6
BRANCH   4  31
ATOM     31  O   UNL d   1     -32.022  20.797  26.129  0.00  0.00    -0.364 OA
ATOM     32  H   UNL d   1     -31.559  19.999  26.422  0.00  0.00     0.217 HD
ENDBRANCH   4  31
TORSDOF 7
ENDMDL
