MODEL 1
REMARK VINA RESULT:     -11.5      0.000      0.000
REMARK  7 active torsions:
REMARK  status: ('A' for Active; 'I' for Inactive)
REMARK    1  A    between atoms: O_2  and  C_3 
REMARK    2  A    between atoms: C_6  and  N_7 
REMARK    3  A    between atoms: N_7  and  C_8 
REMARK    4  A    between atoms: C_11  and  C_12 
REMARK    5  A    between atoms: C_16  and  C_17 
REMARK    6  A    between atoms: C_17  and  O_19 
REMARK    7  A    between atoms: C_21  and  C_22 
ROOT
ATOM      1  N   UNL d   1     -28.206  22.579  24.119  0.00  0.00    -0.354 N 
ATOM      2  H   UNL d   1     -28.218  22.673  25.085  0.00  0.00     0.166 HD
ENDROOT
BRANCH   1   3
ATOM      3  C   UNL d   1     -26.992  22.642  23.425  0.00  0.00     0.051 A 
ATOM      4  C   UNL d   1     -26.739  21.774  22.372  0.00  0.00     0.149 A 
ATOM      5  N   UNL d   1     -25.599  21.822  21.710  0.00  0.00    -0.234 NA
ATOM      6  C   UNL d   1     -24.651  22.691  22.015  0.00  0.00     0.175 A 
ATOM      7  C   UNL d   1     -24.828  23.600  23.063  0.00  0.00     0.029 A 
ATOM      8  C   UNL d   1     -26.026  23.578  23.781  0.00  0.00     0.047 A 
BRANCH   6   9
ATOM      9  O   UNL d   1     -23.496  22.701  21.304  0.00  0.00    -0.339 OA
ATOM     10  C   UNL d   1     -23.529  23.324  20.018  0.00  0.00     0.211 C 
ENDBRANCH   6   9
BRANCH   7  11
ATOM     11  C   UNL d   1     -23.763  24.574  23.404  0.00  0.00    -0.022 A 
ATOM     12  C   UNL d   1     -24.026  25.942  23.358  0.00  0.00     0.012 A 
ATOM     13  C   UNL d   1     -23.031  26.844  23.676  0.00  0.00     0.001 A 
ATOM     14  C   UNL d   1     -21.777  26.393  24.041  0.00  0.00     0.000 A 
ATOM     15  C   UNL d   1     -21.510  25.036  24.090  0.00  0.00     0.001 A 
ATOM     16  C   UNL d   1     -22.498  24.125  23.778  0.00  0.00     0.012 A 
ENDBRANCH   7  11
ENDBRANCH   1   3
BRANCH   1  17
ATOM     17  C   UNL d   1     -29.392  22.377  23.425  0.00  0.00     0.049 A 
ATOM     18  C   UNL d   1     -30.520  21.867  24.089  0.00  0.00     0.064 A 
ATOM     19  C   UNL d   1     -31.706  21.668  23.378  0.00  0.00     0.028 A 
ATOM     20  C   UNL d   1     -31.763  21.972  22.035  0.00  0.00    -0.053 A 
ATOM     21  C   UNL d   1     -30.648  22.474  21.383  0.00  0.00     0.010 A 
ATOM     22  C   UNL d   1     -29.470  22.682  22.072  0.00  0.00     0.031 A 
BRANCH  18  23
ATOM     23  C   UNL d   1     -30.453  21.544  25.524  0.00  0.00     0.178 C 
ATOM     24  O   UNL d   1     -31.343  21.903  26.270  0.00  0.00    -0.646 OA
BRANCH  23  25
ATOM     25  O   UNL d   1     -29.404  20.853  26.011  0.00  0.00    -0.773 OA
ATOM     26  H   UNL d   1     -28.973  20.228  25.413  0.00  0.00     0.167 HD
ENDBRANCH  23  25
ENDBRANCH  18  23
BRANCH  20  27
ATOM     27  C   UNL d   1     -33.044  21.756  21.272  0.00  0.00     0.018 A 
ATOM     28  C   UNL d   1     -34.156  20.966  21.967  0.00  0.00     0.010 A 
ATOM     29  C   UNL d   1     -34.296  22.478  21.775  0.00  0.00     0.010 A 
ENDBRANCH  20  27
ENDBRANCH   1  17
TORSDOF 7
ENDMDL
