MODEL 1
REMARK VINA RESULT:     -11.8      0.000      0.000
REMARK  4 active torsions:
REMARK  status: ('A' for Active; 'I' for Inactive)
REMARK    1  A    between atoms: C_7  and  C_8 
REMARK    2  A    between atoms: C_11  and  C_12 
REMARK    3  A    between atoms: C_14  and  C_15 
REMARK    4  A    between atoms: C_15  and  O_17 
ROOT
ATOM      1  C   UNL d   1     -28.234  22.356  23.142  0.00  0.00     0.068 A 
ATOM      2  C   UNL d   1     -28.711  21.949  24.398  0.00  0.00     0.051 A 
ATOM      3  C   UNL d   1     -30.054  21.636  24.548  0.00  0.00     0.052 A 
ATOM      4  C   UNL d   1     -30.907  21.752  23.365  0.00  0.00     0.010 A 
ATOM      5  C   UNL d   1     -32.274  21.460  23.417  0.00  0.00     0.015 A 
ATOM      6  C   UNL d   1     -33.032  21.581  22.290  0.00  0.00     0.001 A 
ATOM      7  C   UNL d   1     -32.462  21.993  21.087  0.00  0.00     0.002 A 
ATOM      8  C   UNL d   1     -31.137  22.286  21.001  0.00  0.00     0.032 A 
ATOM      9  C   UNL d   1     -30.322  22.173  22.143  0.00  0.00     0.068 A 
ATOM     10  N   UNL d   1     -29.019  22.454  22.090  0.00  0.00    -0.247 NA
ENDROOT
BRANCH   1  11
ATOM     11  C   UNL d   1     -26.798  22.693  22.997  0.00  0.00    -0.007 A 
ATOM     12  C   UNL d   1     -26.257  23.763  23.710  0.00  0.00     0.014 A 
ATOM     13  C   UNL d   1     -24.922  24.076  23.574  0.00  0.00     0.013 A 
ATOM     14  C   UNL d   1     -24.112  23.324  22.724  0.00  0.00    -0.024 A 
ATOM     15  C   UNL d   1     -24.653  22.254  22.011  0.00  0.00     0.013 A 
ATOM     16  C   UNL d   1     -25.986  21.937  22.151  0.00  0.00     0.014 A 
BRANCH  14  17
ATOM     17  C   UNL d   1     -22.675  23.661  22.579  0.00  0.00    -0.002 A 
ATOM     18  C   UNL d   1     -22.177  24.140  21.364  0.00  0.00    -0.048 A 
ATOM     19  C   UNL d   1     -23.086  24.325  20.175  0.00  0.00     0.049 C 
ATOM     20  C   UNL d   1     -20.830  24.445  21.282  0.00  0.00     0.027 A 
ATOM     21  C   UNL d   1     -20.025  24.258  22.389  0.00  0.00     0.116 A 
ATOM     22  N   UNL d   1     -20.522  23.799  23.522  0.00  0.00    -0.272 NA
ATOM     23  C   UNL d   1     -21.798  23.500  23.651  0.00  0.00     0.129 A 
ENDBRANCH  14  17
ENDBRANCH   1  11
BRANCH   3  24
ATOM     24  C   UNL d   1     -30.601  21.202  25.851  0.00  0.00     0.177 C 
ATOM     25  O   UNL d   1     -31.342  21.938  26.473  0.00  0.00    -0.646 OA
BRANCH  24  26
ATOM     26  O   UNL d   1     -30.279  19.994  26.349  0.00  0.00    -0.773 OA
ATOM     27  H   UNL d   1     -30.340  19.240  25.746  0.00  0.00     0.167 HD
ENDBRANCH  24  26
ENDBRANCH   3  24
TORSDOF 4
ENDMDL
