MODEL 1
REMARK VINA RESULT:      -8.9      0.000      0.000
REMARK  3 active torsions:
REMARK  status: ('A' for Active; 'I' for Inactive)
REMARK    1  A    between atoms: C_6  and  C_7 
REMARK       I    between atoms: C_7  and  N_9 
REMARK    2  A    between atoms: N_9  and  C_10 
REMARK    3  A    between atoms: C_13  and  C_14 
ROOT
ATOM      1  C   UNL d   1     -29.666  22.687  22.436  0.00  0.00     0.035 A 
ATOM      2  C   UNL d   1     -30.123  22.521  21.136  0.00  0.00     0.030 A 
ATOM      3  C   UNL d   1     -31.419  22.100  20.909  0.00  0.00     0.018 A 
ATOM      4  C   UNL d   1     -32.263  21.854  21.975  0.00  0.00     0.048 A 
ATOM      5  C   UNL d   1     -31.813  22.022  23.272  0.00  0.00     0.018 A 
ATOM      6  C   UNL d   1     -30.517  22.438  23.505  0.00  0.00     0.030 A 
ENDROOT
BRANCH   1   7
ATOM      7  N   UNL d   1     -28.352  23.108  22.670  0.00  0.00    -0.323 N 
ATOM      8  C   UNL d   1     -27.343  22.214  22.642  0.00  0.00     0.260 C 
ATOM      9  O   UNL d   1     -27.583  21.030  22.509  0.00  0.00    -0.267 OA
ATOM     10  H   UNL d   1     -28.168  24.042  22.852  0.00  0.00     0.169 HD
BRANCH   8  11
ATOM     11  C   UNL d   1     -25.949  22.674  22.772  0.00  0.00     0.083 A 
ATOM     12  C   UNL d   1     -24.889  22.440  21.931  0.00  0.00     0.092 A 
ATOM     13  C   UNL d   1     -24.908  21.640  20.654  0.00  0.00     0.080 C 
ATOM     14  O   UNL d   1     -23.837  23.061  22.471  0.00  0.00    -0.217 OA
ATOM     15  N   UNL d   1     -24.102  23.635  23.498  0.00  0.00    -0.140 NA
ATOM     16  C   UNL d   1     -25.350  23.497  23.834  0.00  0.00     0.166 A 
ENDBRANCH   8  11
ENDBRANCH   1   7
BRANCH   4  17
ATOM     17  C   UNL d   1     -33.679  21.401  21.724  0.00  0.00     0.417 C 
ATOM     18  F   UNL d   1     -33.692  20.463  20.685  0.00  0.00    -0.166 F 
ATOM     19  F   UNL d   1     -34.194  20.816  22.885  0.00  0.00    -0.166 F 
ATOM     20  F   UNL d   1     -34.465  22.501  21.368  0.00  0.00    -0.166 F 
ENDBRANCH   4  17
TORSDOF 3
ENDMDL
