MODEL 1
REMARK VINA RESULT:     -10.4      0.000      0.000
REMARK  6 active torsions:
REMARK  status: ('A' for Active; 'I' for Inactive)
REMARK    1  A    between atoms: C_3  and  C_4 
REMARK    2  A    between atoms: C_4  and  N_5 
REMARK       I    between atoms: N_8  and  C_9 
REMARK    3  A    between atoms: C_9  and  C_11 
REMARK    4  A    between atoms: C_21  and  N_22 
REMARK    5  A    between atoms: N_22  and  C_23 
REMARK    6  A    between atoms: N_32  and  O_33 
ROOT
ATOM      1  C   UNL d   1     -24.632  23.537  23.588  0.00  0.00     0.051 C 
ATOM      2  C   UNL d   1     -24.311  23.296  22.136  0.00  0.00    -0.027 A 
ATOM      3  C   UNL d   1     -23.492  24.175  21.454  0.00  0.00    -0.022 A 
ATOM      4  C   UNL d   1     -23.197  23.955  20.121  0.00  0.00     0.009 A 
ATOM      5  C   UNL d   1     -23.718  22.854  19.467  0.00  0.00     0.003 A 
ATOM      6  C   UNL d   1     -24.532  21.967  20.144  0.00  0.00     0.030 A 
ATOM      7  C   UNL d   1     -24.836  22.189  21.482  0.00  0.00     0.040 A 
ENDROOT
BRANCH   3   8
ATOM      8  C   UNL d   1     -22.922  25.377  22.162  0.00  0.00     0.311 C 
BRANCH   8   9
ATOM      9  N   UNL d   1     -21.622  25.027  22.750  0.00  0.00     0.095 N 
ATOM     10  C   UNL d   1     -21.431  25.698  24.043  0.00  0.00     0.292 C 
ATOM     11  C   UNL d   1     -20.153  25.170  24.705  0.00  0.00     0.156 C 
ATOM     12  N   UNL d   1     -19.039  25.320  23.756  0.00  0.00    -0.348 N 
ATOM     13  C   UNL d   1     -19.210  24.792  22.394  0.00  0.00     0.156 C 
ATOM     14  C   UNL d   1     -17.892  25.924  24.126  0.00  0.00     0.224 C 
ATOM     15  C   UNL d   1     -20.524  25.334  21.823  0.00  0.00     0.292 C 
ATOM     16  O   UNL d   1     -17.769  26.353  25.253  0.00  0.00    -0.273 OA
BRANCH  14  17
ATOM     17  C   UNL d   1     -16.764  26.066  23.137  0.00  0.00     0.078 C 
ATOM     18  C   UNL d   1     -16.574  27.546  22.763  0.00  0.00     0.014 C 
ATOM     19  C   UNL d   1     -15.141  27.929  23.188  0.00  0.00     0.001 C 
ATOM     20  C   UNL d   1     -14.381  26.580  23.213  0.00  0.00     0.001 C 
ATOM     21  C   UNL d   1     -15.439  25.600  23.777  0.00  0.00     0.014 C 
ENDBRANCH  14  17
ENDBRANCH   8   9
ENDBRANCH   3   8
BRANCH   7  22
ATOM     22  N   UNL d   1     -25.664  21.298  22.169  0.00  0.00    -0.335 N 
ATOM     23  H   UNL d   1     -25.287  20.506  22.584  0.00  0.00     0.168 HD
BRANCH  22  24
ATOM     24  C   UNL d   1     -27.025  21.545  22.259  0.00  0.00     0.172 A 
ATOM     25  S   UNL d   1     -28.088  21.878  20.895  0.00  0.00    -0.054 SA
ATOM     26  C   UNL d   1     -29.455  22.029  21.990  0.00  0.00     0.017 A 
ATOM     27  C   UNL d   1     -29.016  21.822  23.263  0.00  0.00     0.099 A 
ATOM     28  C   UNL d   1     -30.884  22.334  21.617  0.00  0.00     0.049 C 
ATOM     29  N   UNL d   1     -27.709  21.566  23.358  0.00  0.00    -0.221 NA
ATOM     30  C   UNL d   1     -29.976  21.895  24.405  0.00  0.00     0.091 C 
ATOM     31  C   UNL d   1     -31.339  22.476  24.081  0.00  0.00     0.064 C 
ATOM     32  N   UNL d   1     -29.665  21.487  25.595  0.00  0.00    -0.139 NA
ATOM     33  C   UNL d   1     -31.813  21.885  22.749  0.00  0.00     0.011 C 
BRANCH  32  34
ATOM     34  O   UNL d   1     -30.612  21.578  26.644  0.00  0.00    -0.266 OA
ATOM     35  H   UNL d   1     -30.884  20.722  27.003  0.00  0.00     0.247 HD
ENDBRANCH  32  34
ENDBRANCH  22  24
ENDBRANCH   7  22
TORSDOF 6
ENDMDL
