MODEL 1
REMARK VINA RESULT:     -10.0      0.000      0.000
REMARK  5 active torsions:
REMARK  status: ('A' for Active; 'I' for Inactive)
REMARK    1  A    between atoms: C_7  and  C_8 
REMARK    2  A    between atoms: C_16  and  C_17 
REMARK    3  A    between atoms: C_17  and  O_19 
REMARK    4  A    between atoms: O_19  and  C_20 
REMARK    5  A    between atoms: C_20  and  C_21 
ROOT
ATOM      1  C   UNL d   1     -24.203  22.766  19.123  0.00  0.00     0.048 C 
ATOM      2  C   UNL d   1     -23.379  23.553  20.108  0.00  0.00    -0.061 A 
ATOM      3  C   UNL d   1     -22.053  23.858  19.808  0.00  0.00     0.009 A 
ATOM      4  C   UNL d   1     -21.281  24.566  20.676  0.00  0.00     0.033 A 
ATOM      5  C   UNL d   1     -21.825  25.000  21.899  0.00  0.00     0.068 A 
ATOM      6  N   UNL d   1     -21.092  25.697  22.770  0.00  0.00    -0.247 NA
ATOM      7  C   UNL d   1     -21.575  26.115  23.920  0.00  0.00     0.068 A 
ATOM      8  C   UNL d   1     -22.897  25.860  24.316  0.00  0.00     0.051 A 
ATOM      9  C   UNL d   1     -23.734  25.143  23.472  0.00  0.00     0.054 A 
ATOM     10  C   UNL d   1     -23.174  24.689  22.199  0.00  0.00     0.009 A 
ATOM     11  C   UNL d   1     -23.939  23.958  21.283  0.00  0.00     0.021 A 
ENDROOT
BRANCH   9  12
ATOM     12  C   UNL d   1     -25.134  24.851  23.845  0.00  0.00     0.294 C 
ATOM     13  O   UNL d   1     -25.943  25.753  23.920  0.00  0.00    -0.259 OA
BRANCH  12  14
ATOM     14  O   UNL d   1     -25.512  23.583  24.100  0.00  0.00    -0.313 OA
BRANCH  14  15
ATOM     15  C   UNL d   1     -26.935  23.338  24.254  0.00  0.00     0.217 C 
BRANCH  15  16
ATOM     16  C   UNL d   1     -27.469  22.679  23.009  0.00  0.00    -0.034 A 
ATOM     17  C   UNL d   1     -28.790  22.856  22.644  0.00  0.00     0.009 A 
ATOM     18  C   UNL d   1     -29.279  22.252  21.500  0.00  0.00     0.001 A 
ATOM     19  C   UNL d   1     -28.445  21.470  20.721  0.00  0.00     0.000 A 
ATOM     20  C   UNL d   1     -27.123  21.295  21.085  0.00  0.00     0.001 A 
ATOM     21  C   UNL d   1     -26.634  21.904  22.226  0.00  0.00     0.009 A 
ENDBRANCH  15  16
ENDBRANCH  14  15
ENDBRANCH  12  14
ENDBRANCH   9  12
BRANCH   7  22
ATOM     22  C   UNL d   1     -20.691  26.882  24.831  0.00  0.00    -0.007 A 
ATOM     23  C   UNL d   1     -19.307  26.731  24.754  0.00  0.00     0.017 A 
ATOM     24  C   UNL d   1     -18.489  27.447  25.603  0.00  0.00     0.043 A 
ATOM     25  C   UNL d   1     -19.040  28.316  26.531  0.00  0.00     0.116 A 
ATOM     26  C   UNL d   1     -20.415  28.469  26.611  0.00  0.00     0.043 A 
ATOM     27  F   UNL d   1     -18.235  29.015  27.360  0.00  0.00    -0.206 F 
ATOM     28  C   UNL d   1     -21.241  27.762  25.763  0.00  0.00     0.017 A 
ENDBRANCH   7  22
TORSDOF 5
ENDMDL
