MODEL 1
REMARK VINA RESULT:      -8.3      0.000      0.000
REMARK  2 active torsions:
REMARK  status: ('A' for Active; 'I' for Inactive)
REMARK    1  A    between atoms: C_5  and  N_6 
REMARK    2  A    between atoms: N_6  and  C_7 
ROOT
ATOM      1  C   UNL d   1     -30.901  22.095  23.223  0.00  0.00     0.145 A 
ATOM      2  N   UNL d   1     -30.583  21.662  24.462  0.00  0.00    -0.261 N 
ATOM      3  H   UNL d   1     -29.739  21.811  24.915  0.00  0.00     0.191 HD
ATOM      4  N   UNL d   1     -31.677  20.962  24.981  0.00  0.00    -0.177 NA
ATOM      5  C   UNL d   1     -32.640  20.958  24.102  0.00  0.00     0.075 A 
ATOM      6  C   UNL d   1     -33.989  20.308  24.273  0.00  0.00     0.074 C 
ATOM      7  C   UNL d   1     -32.202  21.672  22.963  0.00  0.00     0.115 A 
ATOM      8  C   UNL d   1     -32.953  21.912  21.768  0.00  0.00     0.105 C 
ATOM      9  N   UNL d   1     -33.548  22.102  20.819  0.00  0.00    -0.191 NA
ENDROOT
BRANCH   1  10
ATOM     10  N   UNL d   1     -30.091  22.827  22.376  0.00  0.00    -0.340 N 
ATOM     11  H   UNL d   1     -30.441  23.614  21.930  0.00  0.00     0.167 HD
BRANCH  10  12
ATOM     12  C   UNL d   1     -28.770  22.429  22.156  0.00  0.00     0.033 A 
ATOM     13  C   UNL d   1     -28.456  21.628  21.066  0.00  0.00     0.030 A 
ATOM     14  C   UNL d   1     -27.149  21.237  20.852  0.00  0.00     0.009 A 
ATOM     15  C   UNL d   1     -26.153  21.642  21.720  0.00  0.00    -0.062 A 
ATOM     16  C   UNL d   1     -24.728  21.213  21.484  0.00  0.00     0.048 C 
ATOM     17  C   UNL d   1     -26.462  22.440  22.808  0.00  0.00     0.009 A 
ATOM     18  C   UNL d   1     -27.766  22.840  23.024  0.00  0.00     0.030 A 
ENDBRANCH  10  12
ENDBRANCH   1  10
TORSDOF 2
ENDMDL
