MODEL 1
REMARK VINA RESULT:     -10.7      0.000      0.000
REMARK  6 active torsions:
REMARK  status: ('A' for Active; 'I' for Inactive)
REMARK    1  A    between atoms: C_8  and  N_9 
REMARK       I    between atoms: N_9  and  C_10 
REMARK    2  A    between atoms: C_10  and  C_12 
REMARK    3  A    between atoms: C_16  and  N_17 
REMARK    4  A    between atoms: C_29  and  O_30 
REMARK    5  A    between atoms: O_30  and  C_31 
REMARK    6  A    between atoms: C_31  and  C_33 
ROOT
ATOM      1  C   UNL d   1     -24.068  24.668  23.572  0.00  0.00     0.068 A 
ATOM      2  C   UNL d   1     -25.035  25.115  24.479  0.00  0.00     0.064 A 
ATOM      3  C   UNL d   1     -26.268  24.506  24.526  0.00  0.00     0.146 A 
ATOM      4  F   UNL d   1     -27.200  24.937  25.403  0.00  0.00    -0.204 F 
ATOM      5  C   UNL d   1     -26.557  23.442  23.671  0.00  0.00     0.104 A 
ATOM      6  C   UNL d   1     -25.605  22.992  22.767  0.00  0.00     0.073 A 
ATOM      7  C   UNL d   1     -24.363  23.602  22.709  0.00  0.00     0.087 A 
ENDROOT
BRANCH   1   8
ATOM      8  C   UNL d   1     -22.748  25.317  23.519  0.00  0.00     0.259 C 
ATOM      9  N   UNL d   1     -21.703  24.774  24.173  0.00  0.00    -0.321 N 
ATOM     10  H   UNL d   1     -21.837  24.002  24.746  0.00  0.00     0.169 HD
ATOM     11  O   UNL d   1     -22.600  26.345  22.885  0.00  0.00    -0.267 OA
BRANCH   9  12
ATOM     12  C   UNL d   1     -20.423  25.321  24.027  0.00  0.00     0.065 A 
ATOM     13  C   UNL d   1     -19.988  26.334  24.878  0.00  0.00    -0.032 A 
ATOM     14  C   UNL d   1     -20.881  26.862  25.971  0.00  0.00     0.050 C 
ATOM     15  C   UNL d   1     -18.711  26.842  24.697  0.00  0.00     0.028 A 
ATOM     16  C   UNL d   1     -17.919  26.333  23.684  0.00  0.00     0.117 A 
ATOM     17  N   UNL d   1     -18.363  25.376  22.893  0.00  0.00    -0.264 NA
ATOM     18  C   UNL d   1     -19.571  24.867  23.030  0.00  0.00     0.057 A 
ATOM     19  C   UNL d   1     -20.030  23.774  22.098  0.00  0.00     0.073 C 
ENDBRANCH   9  12
ENDBRANCH   1   8
BRANCH   7  20
ATOM     20  O   UNL d   1     -23.432  23.166  21.822  0.00  0.00    -0.336 OA
BRANCH  20  21
ATOM     21  C   UNL d   1     -23.718  23.357  20.436  0.00  0.00     0.232 C 
ATOM     22  C   UNL d   1     -22.432  23.734  19.697  0.00  0.00     0.049 C 
BRANCH  21  23
ATOM     23  C   UNL d   1     -24.283  22.061  19.849  0.00  0.00     0.413 C 
ATOM     24  F   UNL d   1     -25.647  22.225  19.587  0.00  0.00    -0.168 F 
ATOM     25  F   UNL d   1     -23.613  21.759  18.658  0.00  0.00    -0.168 F 
ATOM     26  F   UNL d   1     -24.104  21.018  20.763  0.00  0.00    -0.168 F 
ENDBRANCH  21  23
ENDBRANCH  20  21
ENDBRANCH   7  20
BRANCH   5  27
ATOM     27  N   UNL d   1     -27.811  22.828  23.724  0.00  0.00    -0.178 N 
ATOM     28  C   UNL d   1     -28.282  22.058  24.731  0.00  0.00     0.351 A 
ATOM     29  N   UNL d   1     -29.518  21.673  24.395  0.00  0.00    -0.282 N 
ATOM     30  O   UNL d   1     -27.692  21.770  25.757  0.00  0.00    -0.244 OA
ATOM     31  C   UNL d   1     -29.815  22.204  23.147  0.00  0.00     0.155 A 
ATOM     32  C   UNL d   1     -30.471  20.837  25.138  0.00  0.00     0.137 C 
ATOM     33  N   UNL d   1     -28.810  22.892  22.740  0.00  0.00    -0.147 NA
ATOM     34  C   UNL d   1     -31.142  21.951  22.459  0.00  0.00     0.248 C 
ATOM     35  O   UNL d   1     -32.161  22.573  23.248  0.00  0.00    -0.384 OA
ATOM     36  C   UNL d   1     -32.640  21.835  24.352  0.00  0.00     0.169 C 
ATOM     37  C   UNL d   1     -31.671  21.718  25.506  0.00  0.00     0.046 C 
ENDBRANCH   5  27
TORSDOF 6
ENDMDL
