MODEL 1
REMARK VINA RESULT:     -12.0      0.000      0.000
REMARK  7 active torsions:
REMARK  status: ('A' for Active; 'I' for Inactive)
REMARK    1  A    between atoms: C_4  and  C_5 
REMARK    2  A    between atoms: C_5  and  O_7 
REMARK    3  A    between atoms: C_11  and  C_12 
REMARK    4  A    between atoms: C_17  and  C_18 
REMARK    5  A    between atoms: C_23  and  O_24 
REMARK    6  A    between atoms: O_24  and  C_25 
REMARK    7  A    between atoms: C_25  and  C_26 
ROOT
ATOM      1  C   UNL d   1     -26.632  22.873  22.757  0.00  0.00     0.093 A 
ATOM      2  C   UNL d   1     -25.921  22.078  21.852  0.00  0.00     0.173 A 
ATOM      3  F   UNL d   1     -26.507  20.991  21.302  0.00  0.00    -0.202 F 
ATOM      4  C   UNL d   1     -24.620  22.403  21.521  0.00  0.00     0.170 A 
ATOM      5  F   UNL d   1     -23.935  21.635  20.646  0.00  0.00    -0.202 F 
ATOM      6  C   UNL d   1     -24.015  23.526  22.088  0.00  0.00     0.060 A 
ATOM      7  C   UNL d   1     -24.721  24.318  22.996  0.00  0.00     0.170 A 
ATOM      8  F   UNL d   1     -24.132  25.401  23.548  0.00  0.00    -0.202 F 
ATOM      9  C   UNL d   1     -26.023  23.997  23.325  0.00  0.00     0.173 A 
ATOM     10  F   UNL d   1     -26.708  24.766  24.200  0.00  0.00    -0.202 F 
ENDROOT
BRANCH   1  11
ATOM     11  C   UNL d   1     -28.022  22.526  23.112  0.00  0.00     0.145 A 
ATOM     12  N   UNL d   1     -28.418  21.978  24.304  0.00  0.00    -0.337 N 
ATOM     13  C   UNL d   1     -29.782  21.809  24.243  0.00  0.00     0.080 A 
ATOM     14  H   UNL d   1     -27.844  21.754  25.053  0.00  0.00     0.167 HD
ATOM     15  C   UNL d   1     -30.740  21.308  25.136  0.00  0.00     0.067 A 
ATOM     16  C   UNL d   1     -30.181  22.266  22.975  0.00  0.00     0.087 A 
ATOM     17  C   UNL d   1     -32.081  21.266  24.753  0.00  0.00     0.027 A 
ATOM     18  C   UNL d   1     -32.464  21.717  23.502  0.00  0.00    -0.059 A 
ATOM     19  C   UNL d   1     -33.916  21.664  23.104  0.00  0.00     0.048 C 
ATOM     20  C   UNL d   1     -31.531  22.213  22.617  0.00  0.00     0.040 A 
ATOM     21  N   UNL d   1     -29.064  22.689  22.333  0.00  0.00    -0.228 NA
BRANCH  15  22
ATOM     22  C   UNL d   1     -30.334  20.828  26.469  0.00  0.00     0.178 C 
ATOM     23  O   UNL d   1     -29.777  21.583  27.242  0.00  0.00    -0.646 OA
BRANCH  22  24
ATOM     24  O   UNL d   1     -30.580  19.554  26.831  0.00  0.00    -0.773 OA
ATOM     25  H   UNL d   1     -30.058  19.197  27.561  0.00  0.00     0.167 HD
ENDBRANCH  22  24
ENDBRANCH  15  22
ENDBRANCH   1  11
BRANCH   6  26
ATOM     26  C   UNL d   1     -22.619  23.875  21.731  0.00  0.00     0.014 A 
ATOM     27  C   UNL d   1     -21.643  23.970  22.727  0.00  0.00     0.080 A 
ATOM     28  C   UNL d   1     -20.341  24.297  22.384  0.00  0.00     0.037 A 
ATOM     29  C   UNL d   1     -20.010  24.528  21.062  0.00  0.00     0.003 A 
ATOM     30  C   UNL d   1     -20.973  24.429  20.073  0.00  0.00     0.001 A 
ATOM     31  C   UNL d   1     -22.275  24.109  20.401  0.00  0.00     0.015 A 
BRANCH  27  32
ATOM     32  O   UNL d   1     -21.969  23.742  24.026  0.00  0.00    -0.346 OA
BRANCH  32  33
ATOM     33  C   UNL d   1     -20.990  24.084  25.010  0.00  0.00     0.214 C 
BRANCH  33  34
ATOM     34  C   UNL d   1     -21.167  25.523  25.417  0.00  0.00    -0.034 A 
ATOM     35  C   UNL d   1     -20.589  25.988  26.583  0.00  0.00     0.009 A 
ATOM     36  C   UNL d   1     -20.751  27.309  26.957  0.00  0.00     0.001 A 
ATOM     37  C   UNL d   1     -21.492  28.166  26.163  0.00  0.00     0.000 A 
ATOM     38  C   UNL d   1     -22.069  27.701  24.997  0.00  0.00     0.001 A 
ATOM     39  C   UNL d   1     -21.903  26.381  24.621  0.00  0.00     0.009 A 
ENDBRANCH  33  34
ENDBRANCH  32  33
ENDBRANCH  27  32
ENDBRANCH   6  26
TORSDOF 7
ENDMDL
