MODEL 1
REMARK VINA RESULT:     -12.2      0.000      0.000
REMARK  4 active torsions:
REMARK  status: ('A' for Active; 'I' for Inactive)
REMARK    1  A    between atoms: C_3  and  C_4 
REMARK    2  A    between atoms: C_7  and  C_8 
REMARK    3  A    between atoms: C_25  and  C_26 
REMARK    4  A    between atoms: C_26  and  C_28 
ROOT
ATOM      1  C   UNL d   1     -28.425  21.852  25.497  0.00  0.00     0.052 C 
ATOM      2  C   UNL d   1     -29.327  21.920  24.293  0.00  0.00    -0.017 A 
ATOM      3  C   UNL d   1     -28.808  22.274  23.038  0.00  0.00     0.074 A 
ATOM      4  N   UNL d   1     -29.562  22.351  21.961  0.00  0.00    -0.247 NA
ATOM      5  C   UNL d   1     -30.868  22.086  21.982  0.00  0.00     0.069 A 
ATOM      6  C   UNL d   1     -31.646  22.172  20.812  0.00  0.00     0.035 A 
ATOM      7  C   UNL d   1     -32.978  21.903  20.864  0.00  0.00     0.044 A 
ATOM      8  C   UNL d   1     -33.592  21.542  22.065  0.00  0.00     0.117 A 
ATOM      9  F   UNL d   1     -34.918  21.281  22.085  0.00  0.00    -0.206 F 
ATOM     10  C   UNL d   1     -32.869  21.449  23.220  0.00  0.00     0.057 A 
ATOM     11  C   UNL d   1     -31.497  21.719  23.199  0.00  0.00     0.010 A 
ATOM     12  C   UNL d   1     -30.682  21.633  24.413  0.00  0.00     0.040 A 
ENDROOT
BRANCH   3  13
ATOM     13  C   UNL d   1     -27.362  22.579  22.922  0.00  0.00    -0.007 A 
ATOM     14  C   UNL d   1     -26.807  23.621  23.664  0.00  0.00     0.014 A 
ATOM     15  C   UNL d   1     -25.463  23.899  23.560  0.00  0.00     0.013 A 
ATOM     16  C   UNL d   1     -24.658  23.148  22.705  0.00  0.00    -0.023 A 
ATOM     17  C   UNL d   1     -25.213  22.105  21.962  0.00  0.00     0.013 A 
ATOM     18  C   UNL d   1     -26.557  21.822  22.070  0.00  0.00     0.014 A 
BRANCH  16  19
ATOM     19  C   UNL d   1     -23.211  23.453  22.588  0.00  0.00     0.013 A 
ATOM     20  C   UNL d   1     -22.707  24.022  21.418  0.00  0.00     0.127 A 
ATOM     21  C   UNL d   1     -21.356  24.299  21.315  0.00  0.00     0.043 A 
ATOM     22  F   UNL d   1     -23.536  24.296  20.387  0.00  0.00    -0.205 F 
ATOM     23  C   UNL d   1     -20.510  24.022  22.373  0.00  0.00     0.003 A 
ATOM     24  C   UNL d   1     -21.005  23.458  23.534  0.00  0.00     0.001 A 
ATOM     25  C   UNL d   1     -22.350  23.172  23.648  0.00  0.00     0.015 A 
ENDBRANCH  16  19
ENDBRANCH   3  13
BRANCH  12  26
ATOM     26  C   UNL d   1     -31.273  21.256  25.708  0.00  0.00     0.266 C 
ATOM     27  O   UNL d   1     -31.489  22.106  26.546  0.00  0.00    -0.282 OA
BRANCH  26  28
ATOM     28  C   UNL d   1     -31.610  19.815  25.989  0.00  0.00     0.456 C 
ATOM     29  F   UNL d   1     -31.138  19.014  24.944  0.00  0.00    -0.163 F 
ATOM     30  F   UNL d   1     -31.006  19.421  27.188  0.00  0.00    -0.163 F 
ATOM     31  F   UNL d   1     -32.998  19.672  26.097  0.00  0.00    -0.163 F 
ENDBRANCH  26  28
ENDBRANCH  12  26
TORSDOF 4
ENDMDL
