MODEL 1
REMARK VINA RESULT:     -10.9      0.000      0.000
REMARK  9 active torsions:
REMARK  status: ('A' for Active; 'I' for Inactive)
REMARK    1  A    between atoms: C_2  and  OXT_3 
REMARK    2  A    between atoms: C_2  and  CA_4 
REMARK    3  A    between atoms: C_13  and  C_14 
REMARK    4  A    between atoms: C_14  and  C_15 
REMARK    5  A    between atoms: C_15  and  C_16 
REMARK    6  A    between atoms: C_16  and  C_17 
REMARK    7  A    between atoms: C_17  and  C_18 
REMARK    8  A    between atoms: C_22  and  C_23 
REMARK    9  A    between atoms: C_23  and  O_25 
ROOT
ATOM      1  C   UNL d   1     -25.823  23.838  23.744  0.00  0.00     0.005 C 
ENDROOT
BRANCH   1   2
ATOM      2  C   UNL d   1     -24.560  23.030  23.438  0.00  0.00     0.047 C 
BRANCH   2   3
ATOM      3  C   UNL d   1     -23.829  23.661  22.281  0.00  0.00     0.044 A 
ATOM      4  CA  UNL d   1     -23.952  23.159  21.024  0.00  0.00     0.122 A 
ATOM      5  N   UNL d   1     -23.274  23.762  19.986  0.00  0.00    -0.302 N 
ATOM      6  H   UNL d   1     -23.366  23.407  19.088  0.00  0.00     0.171 HD
ATOM      7  C   UNL d   1     -22.486  24.829  20.196  0.00  0.00     0.327 A 
ATOM      8  O   UNL d   1     -21.902  25.327  19.254  0.00  0.00    -0.247 OA
ATOM      9  N   UNL d   1     -22.325  25.360  21.421  0.00  0.00    -0.275 N 
ATOM     10  H   UNL d   1     -21.749  26.130  21.540  0.00  0.00     0.173 HD
ATOM     11  C   UNL d   1     -22.960  24.827  22.485  0.00  0.00     0.258 A 
ATOM     12  O   UNL d   1     -22.818  25.306  23.595  0.00  0.00    -0.267 OA
BRANCH   4  13
ATOM     13  C   UNL d   1     -24.811  21.978  20.770  0.00  0.00     0.194 C 
ATOM     14  O   UNL d   1     -25.751  22.066  20.006  0.00  0.00    -0.645 OA
BRANCH  13  15
ATOM     15  OXT UNL d   1     -24.549  20.809  21.384  0.00  0.00    -0.772 OA
ATOM     16  HXT UNL d   1     -25.308  20.292  21.687  0.00  0.00     0.167 HD
ENDBRANCH  13  15
ENDBRANCH   4  13
ENDBRANCH   2   3
ENDBRANCH   1   2
BRANCH   1  17
ATOM     17  C   UNL d   1     -27.053  23.051  23.291  0.00  0.00     0.005 C 
BRANCH  17  18
ATOM     18  C   UNL d   1     -27.794  22.513  24.517  0.00  0.00     0.038 C 
BRANCH  18  19
ATOM     19  C   UNL d   1     -29.217  22.186  24.141  0.00  0.00    -0.057 A 
ATOM     20  C   UNL d   1     -30.000  21.497  25.015  0.00  0.00     0.019 A 
ATOM     21  C   UNL d   1     -31.329  21.195  24.669  0.00  0.00    -0.024 A 
ATOM     22  C   UNL d   1     -31.825  21.606  23.407  0.00  0.00    -0.009 A 
ATOM     23  C   UNL d   1     -32.171  20.491  25.547  0.00  0.00     0.012 A 
ATOM     24  C   UNL d   1     -30.989  22.307  22.531  0.00  0.00     0.014 A 
ATOM     25  C   UNL d   1     -33.205  21.282  23.053  0.00  0.00     0.048 A 
ATOM     26  C   UNL d   1     -29.708  22.588  22.901  0.00  0.00     0.008 A 
ATOM     27  C   UNL d   1     -33.980  20.582  23.968  0.00  0.00     0.019 A 
ATOM     28  C   UNL d   1     -33.452  20.200  25.194  0.00  0.00     0.002 A 
BRANCH  25  29
ATOM     29  C   UNL d   1     -33.763  21.689  21.751  0.00  0.00     0.177 C 
ATOM     30  O   UNL d   1     -33.617  20.976  20.778  0.00  0.00    -0.646 OA
BRANCH  29  31
ATOM     31  O   UNL d   1     -34.435  22.852  21.639  0.00  0.00    -0.773 OA
ATOM     32  H   UNL d   1     -34.528  23.385  22.440  0.00  0.00     0.167 HD
ENDBRANCH  29  31
ENDBRANCH  25  29
ENDBRANCH  18  19
ENDBRANCH  17  18
ENDBRANCH   1  17
TORSDOF 9
ENDMDL
