MODEL 1
REMARK VINA RESULT:      -9.7      0.000      0.000
REMARK  7 active torsions:
REMARK  status: ('A' for Active; 'I' for Inactive)
REMARK    1  A    between atoms: N_4  and  C_5 
REMARK    2  A    between atoms: C_7  and  O_8 
REMARK    3  A    between atoms: O_8  and  C_9 
REMARK    4  A    between atoms: C_9  and  C_11 
REMARK    5  A    between atoms: C_15  and  C_16 
REMARK       I    between atoms: C_16  and  N_18 
REMARK    6  A    between atoms: N_18  and  C_19 
REMARK    7  A    between atoms: N_31  and  C_32 
ROOT
ATOM      1  C   UNL d   1     -26.799  23.240  23.706  0.00  0.00     0.104 A 
ATOM      2  C   UNL d   1     -25.914  22.772  22.744  0.00  0.00     0.073 A 
ATOM      3  C   UNL d   1     -24.663  23.350  22.614  0.00  0.00     0.087 A 
ATOM      4  C   UNL d   1     -24.293  24.410  23.456  0.00  0.00     0.068 A 
ATOM      5  C   UNL d   1     -25.192  24.876  24.421  0.00  0.00     0.064 A 
ATOM      6  C   UNL d   1     -26.434  24.294  24.542  0.00  0.00     0.146 A 
ATOM      7  F   UNL d   1     -27.301  24.743  25.476  0.00  0.00    -0.204 F 
ENDROOT
BRANCH   4   8
ATOM      8  C   UNL d   1     -22.965  25.031  23.322  0.00  0.00     0.259 C 
ATOM      9  O   UNL d   1     -22.829  26.041  22.659  0.00  0.00    -0.267 OA
ATOM     10  N   UNL d   1     -21.899  24.478  23.934  0.00  0.00    -0.320 N 
ATOM     11  H   UNL d   1     -22.016  23.706  24.511  0.00  0.00     0.169 HD
BRANCH  10  12
ATOM     12  C   UNL d   1     -20.621  25.017  23.738  0.00  0.00     0.073 A 
ATOM     13  C   UNL d   1     -19.806  24.527  22.724  0.00  0.00     0.143 A 
ATOM     14  C   UNL d   1     -18.548  25.067  22.530  0.00  0.00     0.044 A 
ATOM     15  F   UNL d   1     -20.245  23.530  21.925  0.00  0.00    -0.204 F 
ATOM     16  C   UNL d   1     -18.097  26.084  23.352  0.00  0.00     0.003 A 
ATOM     17  C   UNL d   1     -18.904  26.569  24.364  0.00  0.00     0.002 A 
ATOM     18  C   UNL d   1     -20.165  26.038  24.560  0.00  0.00     0.033 A 
ENDBRANCH  10  12
ENDBRANCH   4   8
BRANCH   3  19
ATOM     19  O   UNL d   1     -23.796  22.893  21.675  0.00  0.00    -0.336 OA
BRANCH  19  20
ATOM     20  C   UNL d   1     -23.925  23.431  20.358  0.00  0.00     0.232 C 
ATOM     21  C   UNL d   1     -22.551  23.877  19.852  0.00  0.00     0.049 C 
BRANCH  20  22
ATOM     22  C   UNL d   1     -24.489  22.359  19.422  0.00  0.00     0.413 C 
ATOM     23  F   UNL d   1     -23.649  21.241  19.434  0.00  0.00    -0.168 F 
ATOM     24  F   UNL d   1     -25.767  21.988  19.854  0.00  0.00    -0.168 F 
ATOM     25  F   UNL d   1     -24.567  22.870  18.122  0.00  0.00    -0.168 F 
ENDBRANCH  20  22
ENDBRANCH  19  20
ENDBRANCH   3  19
BRANCH   1  26
ATOM     26  N   UNL d   1     -28.058  22.650  23.838  0.00  0.00    -0.178 N 
ATOM     27  N   UNL d   1     -28.532  21.942  24.952  0.00  0.00    -0.149 NA
ATOM     28  C   UNL d   1     -29.738  21.551  24.697  0.00  0.00     0.127 A 
ATOM     29  C   UNL d   1     -30.617  20.755  25.628  0.00  0.00     0.093 C 
ATOM     30  N   UNL d   1     -30.087  21.977  23.440  0.00  0.00    -0.280 N 
ATOM     31  C   UNL d   1     -29.047  22.660  22.920  0.00  0.00     0.351 A 
ATOM     32  O   UNL d   1     -29.006  23.186  21.822  0.00  0.00    -0.244 OA
BRANCH  30  33
ATOM     33  C   UNL d   1     -31.372  21.739  22.778  0.00  0.00     0.088 C 
ATOM     34  C   UNL d   1     -32.456  22.587  23.447  0.00  0.00     0.032 C 
ATOM     35  C   UNL d   1     -31.264  22.122  21.300  0.00  0.00     0.032 C 
ENDBRANCH  30  33
ENDBRANCH   1  26
TORSDOF 7
ENDMDL
