MODEL 1
REMARK VINA RESULT:      -8.9      0.000      0.000
REMARK  5 active torsions:
REMARK  status: ('A' for Active; 'I' for Inactive)
REMARK    1  A    between atoms: C_8  and  N_9 
REMARK    2  A    between atoms: C_11  and  C_12 
REMARK    3  A    between atoms: C_17  and  C_18 
REMARK    4  A    between atoms: C_22  and  C_23 
REMARK    5  A    between atoms: C_23  and  O_26 
ROOT
ATOM      1  N   UNL d   1     -17.170  26.427  24.334  0.00  0.00    -0.283 N 
ATOM      2  C   UNL d   1     -18.001  26.661  25.394  0.00  0.00     0.109 A 
ATOM      3  C   UNL d   1     -19.280  26.250  25.408  0.00  0.00    -0.027 A 
ATOM      4  C   UNL d   1     -19.815  25.524  24.254  0.00  0.00    -0.011 A 
ATOM      5  C   UNL d   1     -21.135  25.079  24.212  0.00  0.00     0.030 A 
ATOM      6  C   UNL d   1     -21.586  24.391  23.093  0.00  0.00     0.034 A 
ATOM      7  C   UNL d   1     -20.727  24.154  22.010  0.00  0.00     0.130 A 
ATOM      8  F   UNL d   1     -21.184  23.488  20.927  0.00  0.00    -0.205 F 
ATOM      9  C   UNL d   1     -19.433  24.591  22.038  0.00  0.00     0.061 A 
ATOM     10  C   UNL d   1     -18.957  25.281  23.155  0.00  0.00     0.046 A 
ATOM     11  C   UNL d   1     -17.577  25.768  23.233  0.00  0.00     0.263 A 
ATOM     12  O   UNL d   1     -16.804  25.578  22.309  0.00  0.00    -0.267 OA
ENDROOT
BRANCH   6  13
ATOM     13  C   UNL d   1     -22.986  23.907  23.040  0.00  0.00     0.087 A 
ATOM     14  N   UNL d   1     -24.008  24.344  23.805  0.00  0.00    -0.230 NA
ATOM     15  C   UNL d   1     -25.092  23.696  23.483  0.00  0.00     0.140 A 
ATOM     16  N   UNL d   1     -24.802  22.818  22.497  0.00  0.00    -0.345 N 
ATOM     17  C   UNL d   1     -23.473  22.946  22.212  0.00  0.00     0.124 A 
ATOM     18  C   UNL d   1     -25.741  21.893  21.856  0.00  0.00     0.157 C 
BRANCH  15  19
ATOM     19  C   UNL d   1     -26.448  23.892  24.109  0.00  0.00     0.111 C 
ATOM     20  C   UNL d   1     -26.718  22.761  25.104  0.00  0.00     0.054 C 
ATOM     21  C   UNL d   1     -26.484  25.234  24.841  0.00  0.00     0.054 C 
BRANCH  19  22
ATOM     22  O   UNL d   1     -27.450  23.879  23.090  0.00  0.00    -0.383 OA
ATOM     23  H   UNL d   1     -27.496  24.695  22.572  0.00  0.00     0.211 HD
ENDBRANCH  19  22
ENDBRANCH  15  19
ENDBRANCH   6  13
BRANCH   3  24
ATOM     24  C   UNL d   1     -20.156  26.533  26.601  0.00  0.00     0.013 C 
ATOM     25  C   UNL d   1     -19.304  26.526  27.872  0.00  0.00     0.015 C 
ATOM     26  C   UNL d   1     -20.814  27.904  26.438  0.00  0.00     0.015 C 
ENDBRANCH   3  24
BRANCH   1  27
ATOM     27  C   UNL d   1     -15.843  26.890  24.399  0.00  0.00     0.108 A 
ATOM     28  C   UNL d   1     -14.773  26.247  25.039  0.00  0.00     0.081 A 
ATOM     29  C   UNL d   1     -14.844  24.935  25.777  0.00  0.00     0.075 C 
ATOM     30  N   UNL d   1     -13.702  26.980  24.880  0.00  0.00    -0.176 NA
ATOM     31  N   UNL d   1     -14.050  28.120  24.144  0.00  0.00    -0.265 N 
ATOM     32  H   UNL d   1     -13.451  28.836  23.884  0.00  0.00     0.190 HD
ATOM     33  C   UNL d   1     -15.370  28.044  23.858  0.00  0.00     0.149 A 
ATOM     34 CL   UNL d   1     -16.293  29.212  22.964  0.00  0.00    -0.060 Cl
ENDBRANCH   1  27
TORSDOF 5
ENDMDL
