MODEL 1
REMARK VINA RESULT:      -9.3      0.000      0.000
REMARK  5 active torsions:
REMARK  status: ('A' for Active; 'I' for Inactive)
REMARK    1  A    between atoms: C_7  and  N_8 
REMARK    2  A    between atoms: C_10  and  C_11 
REMARK    3  A    between atoms: C_16  and  C_17 
REMARK    4  A    between atoms: C_19  and  C_20 
REMARK    5  A    between atoms: C_20  and  O_22 
ROOT
ATOM      1  N   UNL d   1     -23.958  23.678  22.130  0.00  0.00    -0.288 N 
ATOM      2  C   UNL d   1     -24.545  24.354  23.164  0.00  0.00     0.109 A 
ATOM      3  C   UNL d   1     -25.835  24.186  23.493  0.00  0.00    -0.027 A 
ATOM      4  C   UNL d   1     -26.657  23.247  22.726  0.00  0.00    -0.011 A 
ATOM      5  C   UNL d   1     -28.002  23.037  23.020  0.00  0.00     0.031 A 
ATOM      6  C   UNL d   1     -28.732  22.130  22.263  0.00  0.00     0.053 A 
ATOM      7  C   UNL d   1     -28.125  21.439  21.204  0.00  0.00     0.131 A 
ATOM      8  F   UNL d   1     -28.850  20.564  20.475  0.00  0.00    -0.205 F 
ATOM      9  C   UNL d   1     -26.807  21.641  20.903  0.00  0.00     0.061 A 
ATOM     10  C   UNL d   1     -26.054  22.545  21.655  0.00  0.00     0.046 A 
ATOM     11  C   UNL d   1     -24.638  22.796  21.371  0.00  0.00     0.263 A 
ATOM     12  O   UNL d   1     -24.081  22.212  20.458  0.00  0.00    -0.267 OA
ENDROOT
BRANCH   6  13
ATOM     13  C   UNL d   1     -30.163  21.894  22.572  0.00  0.00     0.184 A 
ATOM     14  N   UNL d   1     -30.652  21.592  23.754  0.00  0.00    -0.150 NA
ATOM     15  N   UNL d   1     -32.042  21.459  23.594  0.00  0.00    -0.256 N 
ATOM     16  C   UNL d   1     -32.302  21.696  22.296  0.00  0.00     0.153 A 
ATOM     17  C   UNL d   1     -33.016  21.127  24.637  0.00  0.00     0.181 C 
ATOM     18  N   UNL d   1     -31.173  21.955  21.692  0.00  0.00    -0.209 NA
BRANCH  16  19
ATOM     19  C   UNL d   1     -33.662  21.667  21.649  0.00  0.00     0.185 C 
ATOM     20  C   UNL d   1     -34.092  20.214  21.431  0.00  0.00     0.048 C 
BRANCH  19  21
ATOM     21  O   UNL d   1     -33.606  22.341  20.390  0.00  0.00    -0.388 OA
ATOM     22  H   UNL d   1     -32.838  22.103  19.851  0.00  0.00     0.210 HD
ENDBRANCH  19  21
ENDBRANCH  16  19
ENDBRANCH   6  13
BRANCH   3  23
ATOM     23  C   UNL d   1     -26.433  24.957  24.641  0.00  0.00     0.013 C 
ATOM     24  C   UNL d   1     -26.690  24.008  25.814  0.00  0.00     0.015 C 
ATOM     25  C   UNL d   1     -25.463  26.056  25.078  0.00  0.00     0.015 C 
ENDBRANCH   3  23
BRANCH   1  26
ATOM     26  C   UNL d   1     -22.607  23.910  21.851  0.00  0.00     0.048 A 
ATOM     27  C   UNL d   1     -21.627  23.439  22.716  0.00  0.00    -0.035 A 
ATOM     28  C   UNL d   1     -22.018  22.678  23.956  0.00  0.00     0.050 C 
ATOM     29  C   UNL d   1     -20.294  23.670  22.438  0.00  0.00     0.009 A 
ATOM     30  C   UNL d   1     -19.934  24.368  21.299  0.00  0.00     0.001 A 
ATOM     31  C   UNL d   1     -20.908  24.837  20.436  0.00  0.00     0.002 A 
ATOM     32  C   UNL d   1     -22.242  24.605  20.704  0.00  0.00     0.030 A 
ENDBRANCH   1  26
TORSDOF 5
ENDMDL
