MODEL 1
REMARK VINA RESULT:      -9.3      0.000      0.000
REMARK  10 active torsions:
REMARK  status: ('A' for Active; 'I' for Inactive)
REMARK    1  A    between atoms: C_2  and  N_3 
REMARK    2  A    between atoms: C_4  and  C_5 
REMARK    3  A    between atoms: C_5  and  O_6 
REMARK    4  A    between atoms: N_8  and  C_9 
REMARK    5  A    between atoms: C_11  and  O_12 
REMARK    6  A    between atoms: O_12  and  C_13 
REMARK    7  A    between atoms: C_13  and  C_15 
REMARK    8  A    between atoms: C_19  and  C_20 
REMARK       I    between atoms: C_20  and  N_22 
REMARK    9  A    between atoms: N_22  and  C_23 
REMARK   10  A    between atoms: C_28  and  O_29 
ROOT
ATOM      1  C   UNL d   1     -26.656  23.368  23.576  0.00  0.00     0.197 A 
ATOM      2  N   UNL d   1     -25.802  22.920  22.669  0.00  0.00    -0.201 NA
ATOM      3  C   UNL d   1     -24.583  23.415  22.557  0.00  0.00     0.183 A 
ATOM      4  C   UNL d   1     -24.147  24.437  23.415  0.00  0.00     0.088 A 
ATOM      5  C   UNL d   1     -25.029  24.927  24.389  0.00  0.00     0.068 A 
ATOM      6  C   UNL d   1     -26.296  24.382  24.463  0.00  0.00     0.165 A 
ATOM      7  F   UNL d   1     -27.176  24.824  25.387  0.00  0.00    -0.202 F 
ENDROOT
BRANCH   4   8
ATOM      8  C   UNL d   1     -22.786  24.985  23.294  0.00  0.00     0.260 C 
ATOM      9  O   UNL d   1     -22.600  26.021  22.685  0.00  0.00    -0.267 OA
ATOM     10  N   UNL d   1     -21.746  24.339  23.858  0.00  0.00    -0.319 N 
ATOM     11  H   UNL d   1     -21.904  23.553  24.405  0.00  0.00     0.169 HD
BRANCH  10  12
ATOM     12  C   UNL d   1     -20.445  24.799  23.655  0.00  0.00     0.102 A 
ATOM     13  C   UNL d   1     -19.858  25.696  24.543  0.00  0.00     0.116 A 
ATOM     14  C   UNL d   1     -18.560  26.125  24.308  0.00  0.00     0.188 A 
ATOM     15 CL   UNL d   1     -20.735  26.264  25.929  0.00  0.00    -0.077 Cl
ATOM     16  N   UNL d   1     -17.888  25.700  23.250  0.00  0.00    -0.233 NA
ATOM     17  C   UNL d   1     -18.416  24.853  22.384  0.00  0.00     0.164 A 
ATOM     18  C   UNL d   1     -19.699  24.375  22.552  0.00  0.00     0.162 A 
ATOM     19  F   UNL d   1     -20.229  23.509  21.661  0.00  0.00    -0.202 F 
BRANCH  14  20
ATOM     20  O   UNL d   1     -17.974  26.997  25.167  0.00  0.00    -0.338 OA
ATOM     21  C   UNL d   1     -16.712  26.616  25.720  0.00  0.00     0.211 C 
ENDBRANCH  14  20
ENDBRANCH  10  12
ENDBRANCH   4   8
BRANCH   3  22
ATOM     22  O   UNL d   1     -23.745  22.929  21.610  0.00  0.00    -0.319 OA
BRANCH  22  23
ATOM     23  C   UNL d   1     -23.896  23.442  20.285  0.00  0.00     0.234 C 
ATOM     24  C   UNL d   1     -22.532  23.885  19.751  0.00  0.00     0.049 C 
BRANCH  23  25
ATOM     25  C   UNL d   1     -24.470  22.352  19.378  0.00  0.00     0.413 C 
ATOM     26  F   UNL d   1     -24.573  22.838  18.071  0.00  0.00    -0.168 F 
ATOM     27  F   UNL d   1     -23.623  21.238  19.396  0.00  0.00    -0.168 F 
ATOM     28  F   UNL d   1     -25.737  21.981  19.839  0.00  0.00    -0.168 F 
ENDBRANCH  23  25
ENDBRANCH  22  23
ENDBRANCH   3  22
BRANCH   1  29
ATOM     29  N   UNL d   1     -27.933  22.816  23.648  0.00  0.00    -0.159 N 
ATOM     30  N   UNL d   1     -28.955  22.959  22.700  0.00  0.00    -0.145 NA
ATOM     31  C   UNL d   1     -29.987  22.298  23.118  0.00  0.00     0.154 A 
ATOM     32  N   UNL d   1     -29.685  21.724  24.328  0.00  0.00    -0.283 N 
ATOM     33  C   UNL d   1     -28.415  22.046  24.645  0.00  0.00     0.352 A 
ATOM     34  O   UNL d   1     -27.814  21.704  25.648  0.00  0.00    -0.244 OA
BRANCH  31  35
ATOM     35  C   UNL d   1     -31.304  22.182  22.396  0.00  0.00     0.244 C 
BRANCH  35  36
ATOM     36  O   UNL d   1     -31.089  22.304  20.989  0.00  0.00    -0.393 OA
ATOM     37  H   UNL d   1     -30.234  22.690  20.754  0.00  0.00     0.209 HD
ENDBRANCH  35  36
ENDBRANCH  31  35
BRANCH  32  38
ATOM     38  C   UNL d   1     -30.587  20.896  25.133  0.00  0.00     0.131 C 
ATOM     39  C   UNL d   1     -31.645  21.786  25.790  0.00  0.00     0.027 C 
ENDBRANCH  32  38
ENDBRANCH   1  29
TORSDOF 10
ENDMDL
