MODEL 1
REMARK VINA RESULT:      -9.8      0.000      0.000
REMARK  7 active torsions:
REMARK  status: ('A' for Active; 'I' for Inactive)
REMARK    1  A    between atoms: C_2  and  O_3 
REMARK    2  A    between atoms: C_2  and  C_4 
REMARK    3  A    between atoms: C_5  and  C_6 
REMARK       I    between atoms: C_6  and  N_8 
REMARK    4  A    between atoms: N_8  and  C_9 
REMARK    5  A    between atoms: C_13  and  O_14 
REMARK    6  A    between atoms: O_14  and  C_15 
REMARK    7  A    between atoms: C_15  and  C_16 
ROOT
ATOM      1  C   UNL d   1     -25.680  22.949  23.600  0.00  0.00     0.037 A 
ATOM      2  C   UNL d   1     -26.344  22.881  24.818  0.00  0.00     0.051 A 
ATOM      3  C   UNL d   1     -27.648  22.430  24.870  0.00  0.00     0.048 A 
ATOM      4 BR   UNL d   1     -28.551  22.339  26.529  0.00  0.00    -0.048 Br
ATOM      5  C   UNL d   1     -28.297  22.045  23.705  0.00  0.00     0.104 A 
ATOM      6  C   UNL d   1     -27.633  22.108  22.487  0.00  0.00     0.048 A 
ATOM      7 BR   UNL d   1     -28.515  21.575  20.902  0.00  0.00    -0.048 Br
ATOM      8  C   UNL d   1     -26.330  22.563  22.434  0.00  0.00     0.051 A 
ENDROOT
BRANCH   1   9
ATOM      9  N   UNL d   1     -24.359  23.404  23.546  0.00  0.00    -0.323 N 
ATOM     10  C   UNL d   1     -24.104  24.719  23.396  0.00  0.00     0.253 C 
ATOM     11  O   UNL d   1     -25.017  25.521  23.414  0.00  0.00    -0.268 OA
ATOM     12  H   UNL d   1     -23.626  22.773  23.618  0.00  0.00     0.169 HD
BRANCH  10  13
ATOM     13  C   UNL d   1     -22.716  25.186  23.211  0.00  0.00     0.033 C 
ATOM     14  C   UNL d   1     -22.087  25.045  22.055  0.00  0.00     0.037 C 
ATOM     15  C   UNL d   1     -20.666  25.562  21.981  0.00  0.00     0.120 C 
ATOM     16  S   UNL d   1     -20.207  25.747  23.750  0.00  0.00    -0.159 SA
ATOM     17  C   UNL d   1     -21.949  25.853  24.332  0.00  0.00     0.119 C 
BRANCH  14  18
ATOM     18  C   UNL d   1     -22.741  24.415  20.892  0.00  0.00     0.173 C 
ATOM     19  O   UNL d   1     -23.047  23.240  20.931  0.00  0.00    -0.646 OA
BRANCH  18  20
ATOM     20  O   UNL d   1     -22.997  25.143  19.788  0.00  0.00    -0.773 OA
ATOM     21  H   UNL d   1     -22.802  26.090  19.832  0.00  0.00     0.167 HD
ENDBRANCH  18  20
ENDBRANCH  14  18
ENDBRANCH  10  13
ENDBRANCH   1   9
BRANCH   5  22
ATOM     22  O   UNL d   1     -29.582  21.601  23.756  0.00  0.00    -0.344 OA
BRANCH  22  23
ATOM     23  C   UNL d   1     -30.611  22.564  23.523  0.00  0.00     0.214 C 
BRANCH  23  24
ATOM     24  C   UNL d   1     -31.846  21.866  23.015  0.00  0.00    -0.034 A 
ATOM     25  C   UNL d   1     -32.261  22.059  21.711  0.00  0.00     0.009 A 
ATOM     26  C   UNL d   1     -33.395  21.418  21.244  0.00  0.00     0.001 A 
ATOM     27  C   UNL d   1     -34.111  20.585  22.082  0.00  0.00     0.000 A 
ATOM     28  C   UNL d   1     -33.696  20.394  23.386  0.00  0.00     0.001 A 
ATOM     29  C   UNL d   1     -32.563  21.033  23.853  0.00  0.00     0.009 A 
ENDBRANCH  23  24
ENDBRANCH  22  23
ENDBRANCH   5  22
TORSDOF 7
ENDMDL
