MODEL 1
REMARK VINA RESULT:     -10.1      0.000      0.000
REMARK  8 active torsions:
REMARK  status: ('A' for Active; 'I' for Inactive)
REMARK    1  A    between atoms: C_7  and  N_8 
REMARK       I    between atoms: N_8  and  C_9 
REMARK    2  A    between atoms: C_9  and  C_11 
REMARK    3  A    between atoms: C_15  and  N_16 
REMARK    4  A    between atoms: C_18  and  C_19 
REMARK    5  A    between atoms: C_19  and  O_21 
REMARK    6  A    between atoms: C_27  and  O_28 
REMARK    7  A    between atoms: O_28  and  C_29 
REMARK    8  A    between atoms: C_29  and  C_31 
ROOT
ATOM      1  C   UNL d   1     -24.323  24.401  23.456  0.00  0.00     0.068 A 
ATOM      2  C   UNL d   1     -25.187  24.920  24.427  0.00  0.00     0.064 A 
ATOM      3  C   UNL d   1     -26.447  24.386  24.583  0.00  0.00     0.146 A 
ATOM      4  F   UNL d   1     -27.281  24.891  25.517  0.00  0.00    -0.204 F 
ATOM      5  C   UNL d   1     -26.860  23.320  23.784  0.00  0.00     0.104 A 
ATOM      6  C   UNL d   1     -26.008  22.796  22.822  0.00  0.00     0.073 A 
ATOM      7  C   UNL d   1     -24.742  23.329  22.653  0.00  0.00     0.087 A 
ENDROOT
BRANCH   1   8
ATOM      8  C   UNL d   1     -22.978  24.973  23.282  0.00  0.00     0.259 C 
ATOM      9  N   UNL d   1     -21.912  24.370  23.843  0.00  0.00    -0.322 N 
ATOM     10  H   UNL d   1     -22.039  23.608  24.430  0.00  0.00     0.169 HD
ATOM     11  O   UNL d   1     -22.829  25.991  22.631  0.00  0.00    -0.267 OA
BRANCH   9  12
ATOM     12  C   UNL d   1     -20.622  24.845  23.583  0.00  0.00     0.041 A 
ATOM     13  C   UNL d   1     -20.021  25.740  24.457  0.00  0.00    -0.035 A 
ATOM     14  C   UNL d   1     -20.756  26.201  25.689  0.00  0.00     0.050 C 
ATOM     15  C   UNL d   1     -18.747  26.208  24.197  0.00  0.00     0.009 A 
ATOM     16  C   UNL d   1     -18.071  25.785  23.067  0.00  0.00     0.001 A 
ATOM     17  C   UNL d   1     -18.668  24.894  22.193  0.00  0.00     0.002 A 
ATOM     18  C   UNL d   1     -19.938  24.418  22.452  0.00  0.00     0.030 A 
ENDBRANCH   9  12
ENDBRANCH   1   8
BRANCH   7  19
ATOM     19  O   UNL d   1     -23.908  22.818  21.713  0.00  0.00    -0.336 OA
BRANCH  19  20
ATOM     20  C   UNL d   1     -23.997  23.368  20.398  0.00  0.00     0.232 C 
ATOM     21  C   UNL d   1     -22.607  23.808  19.934  0.00  0.00     0.049 C 
BRANCH  20  22
ATOM     22  C   UNL d   1     -24.543  22.310  19.436  0.00  0.00     0.413 C 
ATOM     23  F   UNL d   1     -25.831  21.938  19.837  0.00  0.00    -0.168 F 
ATOM     24  F   UNL d   1     -24.593  22.837  18.142  0.00  0.00    -0.168 F 
ATOM     25  F   UNL d   1     -23.707  21.190  19.453  0.00  0.00    -0.168 F 
ENDBRANCH  20  22
ENDBRANCH  19  20
ENDBRANCH   7  19
BRANCH   5  26
ATOM     26  N   UNL d   1     -28.137  22.779  23.951  0.00  0.00    -0.178 N 
ATOM     27  C   UNL d   1     -28.545  21.990  24.967  0.00  0.00     0.351 A 
ATOM     28  N   UNL d   1     -29.842  21.692  24.749  0.00  0.00    -0.286 N 
ATOM     29  O   UNL d   1     -27.868  21.619  25.908  0.00  0.00    -0.244 OA
ATOM     30  C   UNL d   1     -30.235  22.297  23.580  0.00  0.00     0.159 A 
ATOM     31  C   UNL d   1     -30.686  20.859  25.610  0.00  0.00     0.163 C 
ATOM     32  N   UNL d   1     -29.230  22.950  23.090  0.00  0.00    -0.146 NA
BRANCH  30  33
ATOM     33  C   UNL d   1     -31.609  22.215  22.970  0.00  0.00     0.185 C 
ATOM     34  C   UNL d   1     -31.489  22.170  21.445  0.00  0.00     0.048 C 
BRANCH  33  35
ATOM     35  O   UNL d   1     -32.265  21.031  23.430  0.00  0.00    -0.388 OA
ATOM     36  H   UNL d   1     -33.005  20.749  22.875  0.00  0.00     0.210 HD
ENDBRANCH  33  35
ENDBRANCH  30  33
ENDBRANCH   5  26
TORSDOF 8
ENDMDL
