MODEL 1
REMARK VINA RESULT:     -11.7      0.000      0.000
REMARK  5 active torsions:
REMARK  status: ('A' for Active; 'I' for Inactive)
REMARK    1  A    between atoms: C_4  and  C_5 
REMARK    2  A    between atoms: C_5  and  O_7 
REMARK    3  A    between atoms: C_10  and  C_11 
REMARK    4  A    between atoms: C_14  and  C_15 
REMARK    5  A    between atoms: C_18  and  O_19 
ROOT
ATOM      1  C   UNL d   1     -33.950  21.695  22.391  0.00  0.00     0.048 C 
ATOM      2  C   UNL d   1     -32.548  21.765  22.941  0.00  0.00    -0.059 A 
ATOM      3  C   UNL d   1     -32.303  21.363  24.241  0.00  0.00     0.027 A 
ATOM      4  C   UNL d   1     -31.013  21.422  24.764  0.00  0.00     0.069 A 
ATOM      5  C   UNL d   1     -29.956  21.894  23.954  0.00  0.00     0.102 A 
ATOM      6  N   UNL d   1     -28.639  22.066  24.162  0.00  0.00    -0.227 NA
ATOM      7  C   UNL d   1     -28.075  22.542  23.076  0.00  0.00     0.139 A 
ATOM      8  N   UNL d   1     -29.021  22.709  22.102  0.00  0.00    -0.338 N 
ATOM      9  H   UNL d   1     -28.872  23.049  21.206  0.00  0.00     0.167 HD
ATOM     10  C   UNL d   1     -30.228  22.298  22.635  0.00  0.00     0.064 A 
ATOM     11  C   UNL d   1     -31.523  22.228  22.140  0.00  0.00     0.038 A 
ENDROOT
BRANCH   7  12
ATOM     12  C   UNL d   1     -26.640  22.857  22.931  0.00  0.00     0.010 A 
ATOM     13  C   UNL d   1     -25.848  22.120  22.046  0.00  0.00     0.016 A 
ATOM     14  C   UNL d   1     -24.510  22.415  21.912  0.00  0.00     0.013 A 
ATOM     15  C   UNL d   1     -23.946  23.453  22.654  0.00  0.00    -0.026 A 
ATOM     16  C   UNL d   1     -24.734  24.185  23.542  0.00  0.00     0.013 A 
ATOM     17  C   UNL d   1     -26.072  23.893  23.678  0.00  0.00     0.016 A 
BRANCH  15  18
ATOM     18  C   UNL d   1     -22.507  23.773  22.503  0.00  0.00    -0.026 A 
ATOM     19  C   UNL d   1     -21.665  23.759  23.616  0.00  0.00     0.015 A 
ATOM     20  C   UNL d   1     -20.327  24.057  23.469  0.00  0.00     0.037 A 
ATOM     21  C   UNL d   1     -19.817  24.373  22.218  0.00  0.00     0.065 A 
ATOM     22  C   UNL d   1     -20.651  24.390  21.108  0.00  0.00     0.037 A 
ATOM     23  C   UNL d   1     -21.990  24.086  21.246  0.00  0.00     0.015 A 
BRANCH  21  24
ATOM     24  O   UNL d   1     -18.498  24.668  22.078  0.00  0.00    -0.361 OA
ATOM     25  H   UNL d   1     -18.227  25.481  22.528  0.00  0.00     0.217 HD
ENDBRANCH  21  24
ENDBRANCH  15  18
ENDBRANCH   7  12
BRANCH   4  26
ATOM     26  C   UNL d   1     -30.753  20.995  26.148  0.00  0.00     0.178 C 
ATOM     27  O   UNL d   1     -31.201  19.940  26.553  0.00  0.00    -0.646 OA
BRANCH  26  28
ATOM     28  O   UNL d   1     -30.020  21.774  26.968  0.00  0.00    -0.773 OA
ATOM     29  H   UNL d   1     -29.467  21.325  27.622  0.00  0.00     0.167 HD
ENDBRANCH  26  28
ENDBRANCH   4  26
TORSDOF 5
ENDMDL
