MODEL 1
REMARK VINA RESULT:      -9.7      0.000      0.000
REMARK  6 active torsions:
REMARK  status: ('A' for Active; 'I' for Inactive)
REMARK    1  A    between atoms: C_2  and  N_3 
REMARK    2  A    between atoms: C_4  and  C_5 
REMARK    3  A    between atoms: C_5  and  O_6 
REMARK    4  A    between atoms: N_8  and  C_9 
REMARK    5  A    between atoms: N_15  and  C_16 
REMARK    6  A    between atoms: C_24  and  C_25 
ROOT
ATOM      1  C   UNL d   1     -26.217  23.341  24.210  0.00  0.00     0.064 A 
ATOM      2  C   UNL d   1     -26.421  23.047  25.560  0.00  0.00     0.033 A 
ATOM      3  C   UNL d   1     -27.575  22.453  25.980  0.00  0.00     0.020 A 
ATOM      4  C   UNL d   1     -28.567  22.134  25.050  0.00  0.00     0.043 A 
ATOM      5  C   UNL d   1     -29.827  21.501  25.450  0.00  0.00     0.263 A 
ATOM      6  O   UNL d   1     -30.039  21.235  26.619  0.00  0.00    -0.267 OA
ATOM      7  N   UNL d   1     -30.747  21.211  24.508  0.00  0.00    -0.288 N 
ATOM      8  C   UNL d   1     -30.553  21.497  23.186  0.00  0.00     0.109 A 
ATOM      9  C   UNL d   1     -29.432  22.080  22.733  0.00  0.00    -0.027 A 
ATOM     10  C   UNL d   1     -28.370  22.428  23.680  0.00  0.00    -0.010 A 
ATOM     11  C   UNL d   1     -27.186  23.035  23.269  0.00  0.00     0.044 A 
ENDROOT
BRANCH   1  12
ATOM     12  N   UNL d   1     -25.027  23.949  23.806  0.00  0.00    -0.181 N 
ATOM     13  N   UNL d   1     -23.870  23.297  23.357  0.00  0.00    -0.147 NA
ATOM     14  C   UNL d   1     -22.983  24.197  23.075  0.00  0.00     0.154 A 
ATOM     15  N   UNL d   1     -23.516  25.438  23.326  0.00  0.00    -0.283 N 
ATOM     16  C   UNL d   1     -24.778  25.276  23.770  0.00  0.00     0.351 A 
ATOM     17  O   UNL d   1     -25.552  26.162  24.084  0.00  0.00    -0.244 OA
BRANCH  14  18
ATOM     18  C   UNL d   1     -21.593  23.927  22.558  0.00  0.00     0.244 C 
BRANCH  18  19
ATOM     19  O   UNL d   1     -21.569  24.107  21.141  0.00  0.00    -0.393 OA
ATOM     20  H   UNL d   1     -22.273  24.678  20.805  0.00  0.00     0.209 HD
ENDBRANCH  18  19
ENDBRANCH  14  18
BRANCH  15  21
ATOM     21  C   UNL d   1     -22.831  26.720  23.135  0.00  0.00     0.131 C 
ATOM     22  C   UNL d   1     -22.178  27.149  24.450  0.00  0.00     0.027 C 
ENDBRANCH  15  21
ENDBRANCH   1  12
BRANCH   9  23
ATOM     23  C   UNL d   1     -29.267  22.374  21.264  0.00  0.00     0.013 C 
ATOM     24  C   UNL d   1     -28.361  21.316  20.631  0.00  0.00     0.015 C 
ATOM     25  C   UNL d   1     -30.636  22.347  20.582  0.00  0.00     0.015 C 
ENDBRANCH   9  23
BRANCH   7  26
ATOM     26  C   UNL d   1     -31.945  20.601  24.900  0.00  0.00     0.045 A 
ATOM     27  C   UNL d   1     -31.918  19.448  25.672  0.00  0.00     0.072 A 
ATOM     28  C   UNL d   1     -33.104  18.848  26.058  0.00  0.00     0.118 A 
ATOM     29  C   UNL d   1     -34.315  19.397  25.673  0.00  0.00     0.042 A 
ATOM     30  F   UNL d   1     -33.079  17.726  26.809  0.00  0.00    -0.206 F 
ATOM     31  C   UNL d   1     -34.343  20.546  24.905  0.00  0.00     0.005 A 
ATOM     32  C   UNL d   1     -33.162  21.149  24.516  0.00  0.00     0.030 A 
ENDBRANCH   7  26
TORSDOF 6
ENDMDL
