MODEL 1
REMARK VINA RESULT:      -9.5      0.000      0.000
REMARK  7 active torsions:
REMARK  status: ('A' for Active; 'I' for Inactive)
REMARK    1  A    between atoms: C_2  and  C_3 
REMARK    2  A    between atoms: C_3  and  O_5 
REMARK    3  A    between atoms: O_5  and  C_6 
REMARK    4  A    between atoms: C_8  and  N_9 
REMARK       I    between atoms: N_9  and  C_10 
REMARK    5  A    between atoms: C_10  and  C_12 
REMARK    6  A    between atoms: C_15  and  O_17 
REMARK    7  A    between atoms: C_21  and  C_22 
ROOT
ATOM      1  C   UNL d   1     -31.156  22.055  22.369  0.00  0.00     0.141 C 
ATOM      2  C   UNL d   1     -31.845  21.748  23.587  0.00  0.00     0.107 C 
ATOM      3  N   UNL d   1     -32.390  21.506  24.553  0.00  0.00    -0.191 NA
ATOM      4  C   UNL d   1     -31.810  21.966  21.176  0.00  0.00     0.065 C 
ATOM      5  C   UNL d   1     -33.257  21.547  21.139  0.00  0.00     0.077 C 
ENDROOT
BRANCH   1   6
ATOM      6  C   UNL d   1     -29.744  22.464  22.406  0.00  0.00     0.269 C 
ATOM      7  N   UNL d   1     -28.828  21.669  22.993  0.00  0.00    -0.320 N 
ATOM      8  H   UNL d   1     -29.089  20.802  23.341  0.00  0.00     0.169 HD
ATOM      9  O   UNL d   1     -29.404  23.520  21.907  0.00  0.00    -0.266 OA
BRANCH   7  10
ATOM     10  C   UNL d   1     -27.500  22.094  23.100  0.00  0.00     0.076 A 
ATOM     11  C   UNL d   1     -26.607  21.845  22.066  0.00  0.00     0.070 A 
ATOM     12  C   UNL d   1     -25.293  22.266  22.170  0.00  0.00     0.082 A 
ATOM     13  C   UNL d   1     -24.866  22.944  23.319  0.00  0.00     0.011 A 
ATOM     14  C   UNL d   1     -25.768  23.186  24.356  0.00  0.00     0.059 A 
ATOM     15  C   UNL d   1     -27.078  22.769  24.243  0.00  0.00     0.144 A 
ATOM     16  F   UNL d   1     -27.950  23.008  25.246  0.00  0.00    -0.204 F 
BRANCH  12  17
ATOM     17  O   UNL d   1     -24.419  22.023  21.159  0.00  0.00    -0.345 OA
BRANCH  17  18
ATOM     18  C   UNL d   1     -24.306  23.023  20.144  0.00  0.00     0.124 C 
ATOM     19  C   UNL d   1     -24.827  22.464  18.819  0.00  0.00     0.040 C 
BRANCH  18  20
ATOM     20  C   UNL d   1     -22.839  23.427  19.987  0.00  0.00     0.027 C 
ATOM     21  C   UNL d   1     -22.697  24.933  20.218  0.00  0.00     0.007 C 
ENDBRANCH  18  20
ENDBRANCH  17  18
ENDBRANCH  12  17
BRANCH  13  22
ATOM     22  C   UNL d   1     -23.461  23.395  23.434  0.00  0.00    -0.012 A 
ATOM     23  C   UNL d   1     -23.163  24.768  23.605  0.00  0.00    -0.015 A 
ATOM     24  C   UNL d   1     -21.811  25.175  23.714  0.00  0.00    -0.025 A 
ATOM     25  C   UNL d   1     -24.180  25.731  23.669  0.00  0.00     0.013 A 
ATOM     26  C   UNL d   1     -20.791  24.211  23.650  0.00  0.00     0.012 A 
ATOM     27  C   UNL d   1     -21.515  26.538  23.882  0.00  0.00     0.012 A 
ATOM     28  C   UNL d   1     -21.104  22.895  23.485  0.00  0.00     0.002 A 
ATOM     29  C   UNL d   1     -22.426  22.479  23.378  0.00  0.00     0.013 A 
ATOM     30  C   UNL d   1     -22.527  27.446  23.940  0.00  0.00     0.001 A 
ATOM     31  C   UNL d   1     -23.857  27.044  23.834  0.00  0.00     0.001 A 
ENDBRANCH  13  22
ENDBRANCH   7  10
ENDBRANCH   1   6
BRANCH   4  32
ATOM     32  O   UNL d   1     -31.164  22.253  20.033  0.00  0.00    -0.364 OA
ATOM     33  H   UNL d   1     -31.138  21.562  19.357  0.00  0.00     0.217 HD
ENDBRANCH   4  32
TORSDOF 7
ENDMDL
