MODEL 1
REMARK VINA RESULT:     -10.5      0.000      0.000
REMARK  4 active torsions:
REMARK  status: ('A' for Active; 'I' for Inactive)
REMARK    1  A    between atoms: C_2  and  O_3 
REMARK    2  A    between atoms: C_4  and  C_7 
REMARK       I    between atoms: C_7  and  N_9 
REMARK    3  A    between atoms: N_9  and  C_10 
REMARK    4  A    between atoms: C_13  and  C_14 
ROOT
ATOM      1  C   UNL d   1     -33.334  21.306  23.748  0.00  0.00     0.077 C 
ATOM      2  C   UNL d   1     -32.016  21.731  23.154  0.00  0.00     0.065 C 
ATOM      3  C   UNL d   1     -30.907  21.813  23.944  0.00  0.00     0.141 C 
ATOM      4  C   UNL d   1     -30.996  21.495  25.337  0.00  0.00     0.107 C 
ATOM      5  N   UNL d   1     -31.065  21.242  26.443  0.00  0.00    -0.191 NA
ENDROOT
BRANCH   3   6
ATOM      6  C   UNL d   1     -29.622  22.228  23.364  0.00  0.00     0.269 C 
ATOM      7  O   UNL d   1     -29.583  23.142  22.562  0.00  0.00    -0.266 OA
ATOM      8  N   UNL d   1     -28.486  21.596  23.722  0.00  0.00    -0.321 N 
ATOM      9  H   UNL d   1     -28.526  20.817  24.298  0.00  0.00     0.169 HD
BRANCH   8  10
ATOM     10  C   UNL d   1     -27.251  22.063  23.261  0.00  0.00     0.057 A 
ATOM     11  C   UNL d   1     -26.533  22.985  24.015  0.00  0.00     0.061 A 
ATOM     12  C   UNL d   1     -25.315  23.447  23.563  0.00  0.00     0.038 A 
ATOM     13 CL   UNL d   1     -27.170  23.555  25.526  0.00  0.00    -0.082 Cl
ATOM     14  C   UNL d   1     -24.804  22.989  22.349  0.00  0.00    -0.024 A 
ATOM     15  C   UNL d   1     -25.523  22.060  21.599  0.00  0.00     0.014 A 
ATOM     16  C   UNL d   1     -26.743  21.605  22.052  0.00  0.00     0.032 A 
BRANCH  14  17
ATOM     17  C   UNL d   1     -23.494  23.484  21.861  0.00  0.00    -0.024 A 
ATOM     18  C   UNL d   1     -22.436  23.656  22.750  0.00  0.00     0.036 A 
ATOM     19  C   UNL d   1     -21.217  24.117  22.289  0.00  0.00     0.034 A 
ATOM     20  C   UNL d   1     -21.048  24.409  20.947  0.00  0.00     0.024 A 
ATOM     21 CL   UNL d   1     -19.897  24.333  23.395  0.00  0.00    -0.084 Cl
ATOM     22  C   UNL d   1     -22.096  24.238  20.060  0.00  0.00     0.003 A 
ATOM     23  C   UNL d   1     -23.316  23.774  20.509  0.00  0.00     0.012 A 
ENDBRANCH  14  17
ENDBRANCH   8  10
ENDBRANCH   3   6
BRANCH   2  24
ATOM     24  O   UNL d   1     -31.934  22.029  21.846  0.00  0.00    -0.364 OA
ATOM     25  H   UNL d   1     -31.055  22.007  21.444  0.00  0.00     0.217 HD
ENDBRANCH   2  24
TORSDOF 4
ENDMDL
