MODEL 1
REMARK VINA RESULT:     -11.1      0.000      0.000
REMARK  6 active torsions:
REMARK  status: ('A' for Active; 'I' for Inactive)
REMARK    1  A    between atoms: O_2  and  C_3 
REMARK    2  A    between atoms: C_8  and  C_9 
REMARK    3  A    between atoms: C_13  and  N_14 
REMARK    4  A    between atoms: N_14  and  C_15 
REMARK    5  A    between atoms: C_21  and  C_22 
REMARK    6  A    between atoms: C_22  and  O_24 
ROOT
ATOM      1  C   UNL d   1     -26.172  23.393  23.944  0.00  0.00     0.070 A 
ATOM      2  C   UNL d   1     -26.492  23.369  25.301  0.00  0.00     0.041 A 
ATOM      3  C   UNL d   1     -27.564  22.608  25.727  0.00  0.00    -0.032 A 
ATOM      4  C   UNL d   1     -27.941  22.556  27.184  0.00  0.00     0.050 C 
ATOM      5  C   UNL d   1     -28.291  21.892  24.775  0.00  0.00     0.056 A 
ATOM      6  C   UNL d   1     -27.911  21.959  23.440  0.00  0.00     0.147 A 
ATOM      7  N   UNL d   1     -26.884  22.695  23.069  0.00  0.00    -0.258 NA
ENDROOT
BRANCH   5   8
ATOM      8  N   UNL d   1     -29.384  21.115  25.161  0.00  0.00    -0.354 N 
ATOM      9  H   UNL d   1     -29.300  20.488  25.896  0.00  0.00     0.166 HD
BRANCH   8  10
ATOM     10  C   UNL d   1     -30.596  21.241  24.492  0.00  0.00     0.049 A 
ATOM     11  C   UNL d   1     -31.683  20.422  24.841  0.00  0.00     0.064 A 
ATOM     12  C   UNL d   1     -32.896  20.560  24.160  0.00  0.00     0.027 A 
ATOM     13  C   UNL d   1     -33.018  21.493  23.155  0.00  0.00    -0.061 A 
ATOM     14  C   UNL d   1     -31.942  22.300  22.814  0.00  0.00     0.009 A 
ATOM     15  C   UNL d   1     -34.326  21.639  22.423  0.00  0.00     0.048 C 
ATOM     16  C   UNL d   1     -30.741  22.181  23.479  0.00  0.00     0.031 A 
BRANCH  11  17
ATOM     17  C   UNL d   1     -31.545  19.426  25.918  0.00  0.00     0.178 C 
ATOM     18  O   UNL d   1     -31.934  18.288  25.746  0.00  0.00    -0.646 OA
BRANCH  17  19
ATOM     19  O   UNL d   1     -30.988  19.779  27.094  0.00  0.00    -0.773 OA
ATOM     20  H   UNL d   1     -30.960  19.103  27.785  0.00  0.00     0.167 HD
ENDBRANCH  17  19
ENDBRANCH  11  17
ENDBRANCH   8  10
ENDBRANCH   5   8
BRANCH   1  21
ATOM     21  C   UNL d   1     -25.025  24.206  23.475  0.00  0.00     0.034 A 
ATOM     22  C   UNL d   1     -24.945  25.560  23.803  0.00  0.00     0.129 A 
ATOM     23  C   UNL d   1     -23.872  26.314  23.368  0.00  0.00     0.046 A 
ATOM     24  F   UNL d   1     -25.915  26.133  24.550  0.00  0.00    -0.205 F 
ATOM     25  C   UNL d   1     -22.881  25.733  22.599  0.00  0.00     0.040 A 
ATOM     26  C   UNL d   1     -22.955  24.388  22.264  0.00  0.00     0.069 A 
ATOM     27  C   UNL d   1     -24.025  23.623  22.700  0.00  0.00     0.053 A 
BRANCH  26  28
ATOM     28  O   UNL d   1     -21.979  23.821  21.508  0.00  0.00    -0.356 OA
ATOM     29  C   UNL d   1     -21.392  24.635  20.491  0.00  0.00     0.210 C 
ENDBRANCH  26  28
ENDBRANCH   1  21
TORSDOF 6
ENDMDL
