MODEL 1
REMARK VINA RESULT:      -9.6      0.000      0.000
REMARK  2 active torsions:
REMARK  status: ('A' for Active; 'I' for Inactive)
REMARK       I    between atoms: C_2  and  N_3 
REMARK       I    between atoms: C_2  and  N_11 
REMARK    1  A    between atoms: N_3  and  C_4 
REMARK    2  A    between atoms: N_11  and  C_12 
ROOT
ATOM      1  O   UNL d   1     -26.267  23.716  24.332  0.00  0.00    -0.247 OA
ATOM      2  C   UNL d   1     -26.040  23.061  23.334  0.00  0.00     0.325 C 
ATOM      3  N   UNL d   1     -24.893  23.247  22.652  0.00  0.00    -0.309 N 
ATOM      4  N   UNL d   1     -26.936  22.149  22.908  0.00  0.00    -0.306 N 
ATOM      5  H   UNL d   1     -24.741  22.772  21.819  0.00  0.00     0.170 HD
ATOM      6  H   UNL d   1     -26.728  21.579  22.151  0.00  0.00     0.170 HD
ENDROOT
BRANCH   4   7
ATOM      7  C   UNL d   1     -28.166  22.022  23.559  0.00  0.00     0.066 A 
ATOM      8  C   UNL d   1     -29.370  22.103  22.826  0.00  0.00     0.093 A 
ATOM      9  C   UNL d   1     -30.603  21.971  23.511  0.00  0.00    -0.005 A 
ATOM     10  N   UNL d   1     -29.360  22.301  21.505  0.00  0.00    -0.258 NA
ATOM     11  C   UNL d   1     -30.610  21.762  24.899  0.00  0.00     0.014 A 
ATOM     12  C   UNL d   1     -31.802  22.053  22.778  0.00  0.00     0.015 A 
ATOM     13  C   UNL d   1     -29.432  21.688  25.581  0.00  0.00     0.003 A 
ATOM     14  C   UNL d   1     -28.214  21.811  24.919  0.00  0.00     0.032 A 
ATOM     15  C   UNL d   1     -31.722  22.256  21.430  0.00  0.00     0.020 A 
ATOM     16  C   UNL d   1     -30.475  22.378  20.819  0.00  0.00     0.117 A 
ENDBRANCH   4   7
BRANCH   3  17
ATOM     17  C   UNL d   1     -23.922  24.128  23.141  0.00  0.00     0.036 A 
ATOM     18  C   UNL d   1     -24.176  25.493  23.180  0.00  0.00     0.031 A 
ATOM     19  C   UNL d   1     -23.216  26.360  23.663  0.00  0.00     0.026 A 
ATOM     20  C   UNL d   1     -22.001  25.870  24.109  0.00  0.00     0.034 A 
ATOM     21  C   UNL d   1     -21.745  24.511  24.072  0.00  0.00     0.026 A 
ATOM     22 CL   UNL d   1     -20.797  26.963  24.717  0.00  0.00    -0.084 Cl
ATOM     23  C   UNL d   1     -22.704  23.639  23.594  0.00  0.00     0.031 A 
ENDBRANCH   3  17
TORSDOF 2
ENDMDL
