MODEL 1
REMARK VINA RESULT:     -10.2      0.000      0.000
REMARK  7 active torsions:
REMARK  status: ('A' for Active; 'I' for Inactive)
REMARK    1  A    between atoms: C_2  and  O_3 
REMARK    2  A    between atoms: O_3  and  C_4 
REMARK    3  A    between atoms: C_4  and  C_6 
REMARK    4  A    between atoms: C_8  and  N_9 
REMARK    5  A    between atoms: N_9  and  C_10 
REMARK    6  A    between atoms: C_15  and  C_16 
REMARK    7  A    between atoms: C_22  and  C_23 
ROOT
ATOM      1  C   UNL d   1     -25.110  22.754  21.845  0.00  0.00     0.113 A 
ATOM      2  S   UNL d   1     -26.656  21.909  21.888  0.00  0.00    -0.044 SA
ATOM      3  C   UNL d   1     -26.996  22.574  23.424  0.00  0.00     0.172 A 
ATOM      4  N   UNL d   1     -26.028  23.345  23.820  0.00  0.00    -0.222 NA
ATOM      5  C   UNL d   1     -24.992  23.472  23.018  0.00  0.00     0.093 A 
ENDROOT
BRANCH   3   6
ATOM      6  N   UNL d   1     -28.147  22.330  24.144  0.00  0.00    -0.335 N 
ATOM      7  H   UNL d   1     -28.106  22.241  25.109  0.00  0.00     0.168 HD
BRANCH   6   8
ATOM      8  C   UNL d   1     -29.373  22.210  23.484  0.00  0.00     0.035 A 
ATOM      9  C   UNL d   1     -30.482  21.716  24.158  0.00  0.00     0.047 A 
ATOM     10  C   UNL d   1     -31.693  21.604  23.505  0.00  0.00     0.067 A 
ATOM     11  C   UNL d   1     -31.800  21.973  22.175  0.00  0.00     0.026 A 
ATOM     12  C   UNL d   1     -30.697  22.465  21.500  0.00  0.00     0.022 A 
ATOM     13 BR   UNL d   1     -33.459  21.809  21.282  0.00  0.00    -0.050 Br
ATOM     14  C   UNL d   1     -29.485  22.584  22.150  0.00  0.00     0.031 A 
BRANCH  10  15
ATOM     15  C   UNL d   1     -32.899  21.074  24.238  0.00  0.00     0.418 C 
ATOM     16  F   UNL d   1     -32.604  20.966  25.601  0.00  0.00    -0.166 F 
ATOM     17  F   UNL d   1     -33.974  21.950  24.062  0.00  0.00    -0.166 F 
ATOM     18  F   UNL d   1     -33.236  19.814  23.732  0.00  0.00    -0.166 F 
ENDBRANCH  10  15
ENDBRANCH   6   8
ENDBRANCH   3   6
BRANCH   1  19
ATOM     19  C   UNL d   1     -24.160  22.704  20.799  0.00  0.00     0.302 C 
ATOM     20  O   UNL d   1     -23.819  21.631  20.337  0.00  0.00    -0.259 OA
BRANCH  19  21
ATOM     21  O   UNL d   1     -23.632  23.847  20.311  0.00  0.00    -0.317 OA
BRANCH  21  22
ATOM     22  C   UNL d   1     -22.299  23.779  19.800  0.00  0.00     0.174 C 
ATOM     23  C   UNL d   1     -21.502  24.989  20.293  0.00  0.00     0.034 C 
ENDBRANCH  21  22
ENDBRANCH  19  21
ENDBRANCH   1  19
BRANCH   5  24
ATOM     24  C   UNL d   1     -23.815  24.313  23.340  0.00  0.00    -0.006 A 
ATOM     25  C   UNL d   1     -23.916  25.703  23.303  0.00  0.00     0.014 A 
ATOM     26  C   UNL d   1     -22.818  26.481  23.605  0.00  0.00     0.001 A 
ATOM     27  C   UNL d   1     -21.616  25.884  23.941  0.00  0.00     0.000 A 
ATOM     28  C   UNL d   1     -21.509  24.505  23.979  0.00  0.00     0.001 A 
ATOM     29  C   UNL d   1     -22.603  23.716  23.686  0.00  0.00     0.014 A 
ENDBRANCH   5  24
TORSDOF 7
ENDMDL
