MODEL 1
REMARK VINA RESULT:     -10.4      0.000      0.000
REMARK  7 active torsions:
REMARK  status: ('A' for Active; 'I' for Inactive)
REMARK    1  A    between atoms: C_2  and  OXT_3 
REMARK    2  A    between atoms: C_2  and  CA_4 
REMARK    3  A    between atoms: C_13  and  C_14 
REMARK    4  A    between atoms: C_14  and  C_15 
REMARK    5  A    between atoms: C_15  and  C_16 
REMARK    6  A    between atoms: C_19  and  O_20 
REMARK    7  A    between atoms: O_20  and  C_21 
ROOT
ATOM      1  C   UNL d   1     -30.750  22.736  23.609  0.00  0.00     0.051 C 
ENDROOT
BRANCH   1   2
ATOM      2  C   UNL d   1     -31.191  21.524  24.388  0.00  0.00     0.044 A 
ATOM      3  CA  UNL d   1     -32.370  20.909  24.108  0.00  0.00     0.122 A 
ATOM      4  N   UNL d   1     -32.746  19.802  24.839  0.00  0.00    -0.302 N 
ATOM      5  H   UNL d   1     -33.587  19.362  24.638  0.00  0.00     0.171 HD
ATOM      6  C   UNL d   1     -31.968  19.319  25.821  0.00  0.00     0.327 A 
ATOM      7  O   UNL d   1     -32.335  18.340  26.440  0.00  0.00    -0.247 OA
ATOM      8  N   UNL d   1     -30.792  19.891  26.137  0.00  0.00    -0.275 N 
ATOM      9  H   UNL d   1     -30.253  19.518  26.853  0.00  0.00     0.173 HD
ATOM     10  C   UNL d   1     -30.355  20.974  25.462  0.00  0.00     0.258 A 
ATOM     11  O   UNL d   1     -29.290  21.490  25.743  0.00  0.00    -0.267 OA
BRANCH   3  12
ATOM     12  C   UNL d   1     -33.245  21.424  23.028  0.00  0.00     0.194 C 
ATOM     13  O   UNL d   1     -33.443  20.755  22.035  0.00  0.00    -0.645 OA
BRANCH  12  14
ATOM     14  OXT UNL d   1     -33.821  22.636  23.148  0.00  0.00    -0.772 OA
ATOM     15  HXT UNL d   1     -34.158  22.878  24.021  0.00  0.00     0.167 HD
ENDBRANCH  12  14
ENDBRANCH   3  12
ENDBRANCH   1   2
BRANCH   1  16
ATOM     16  C   UNL d   1     -30.308  22.309  22.208  0.00  0.00     0.043 C 
BRANCH  16  17
ATOM     17  C   UNL d   1     -28.808  22.170  22.173  0.00  0.00    -0.058 A 
ATOM     18  C   UNL d   1     -28.037  22.771  23.151  0.00  0.00     0.010 A 
ATOM     19  C   UNL d   1     -26.661  22.646  23.122  0.00  0.00     0.038 A 
ATOM     20  C   UNL d   1     -26.054  21.916  22.109  0.00  0.00     0.076 A 
ATOM     21  C   UNL d   1     -26.831  21.313  21.131  0.00  0.00     0.038 A 
ATOM     22  C   UNL d   1     -28.205  21.447  21.161  0.00  0.00     0.010 A 
BRANCH  20  23
ATOM     23  O   UNL d   1     -24.702  21.791  22.079  0.00  0.00    -0.311 OA
BRANCH  23  24
ATOM     24  C   UNL d   1     -23.964  22.901  21.814  0.00  0.00     0.076 A 
ATOM     25  C   UNL d   1     -23.432  23.647  22.856  0.00  0.00     0.037 A 
ATOM     26  C   UNL d   1     -22.683  24.775  22.584  0.00  0.00     0.003 A 
ATOM     27  C   UNL d   1     -22.462  25.161  21.275  0.00  0.00     0.000 A 
ATOM     28  C   UNL d   1     -22.990  24.418  20.234  0.00  0.00     0.003 A 
ATOM     29  C   UNL d   1     -23.736  23.286  20.501  0.00  0.00     0.037 A 
ENDBRANCH  23  24
ENDBRANCH  20  23
ENDBRANCH  16  17
ENDBRANCH   1  16
TORSDOF 7
ENDMDL
