MODEL 1
REMARK VINA RESULT:     -10.0      0.000      0.000
REMARK  6 active torsions:
REMARK  status: ('A' for Active; 'I' for Inactive)
REMARK    1  A    between atoms: C_2  and  N_3 
REMARK    2  A    between atoms: C_4  and  C_5 
REMARK    3  A    between atoms: C_5  and  O_6 
REMARK    4  A    between atoms: N_8  and  C_9 
REMARK    5  A    between atoms: N_15  and  C_16 
REMARK    6  A    between atoms: C_24  and  C_25 
ROOT
ATOM      1  C   UNL d   1     -26.222  23.325  24.189  0.00  0.00     0.064 A 
ATOM      2  C   UNL d   1     -26.457  23.056  25.538  0.00  0.00     0.033 A 
ATOM      3  C   UNL d   1     -27.634  22.497  25.944  0.00  0.00     0.020 A 
ATOM      4  C   UNL d   1     -28.613  22.179  25.001  0.00  0.00     0.046 A 
ATOM      5  C   UNL d   1     -29.891  21.571  25.384  0.00  0.00     0.279 A 
ATOM      6  O   UNL d   1     -30.135  21.326  26.553  0.00  0.00    -0.265 OA
ATOM      7  N   UNL d   1     -30.792  21.291  24.420  0.00  0.00    -0.195 N 
ATOM      8  N   UNL d   1     -30.538  21.561  23.076  0.00  0.00    -0.168 NA
ATOM      9  C   UNL d   1     -29.427  22.098  22.665  0.00  0.00     0.070 A 
ATOM     10  C   UNL d   1     -28.382  22.443  23.630  0.00  0.00     0.009 A 
ATOM     11  C   UNL d   1     -27.176  23.019  23.232  0.00  0.00     0.046 A 
ENDROOT
BRANCH   1  12
ATOM     12  N   UNL d   1     -25.011  23.902  23.798  0.00  0.00    -0.181 N 
ATOM     13  N   UNL d   1     -23.856  23.217  23.394  0.00  0.00    -0.147 NA
ATOM     14  C   UNL d   1     -22.947  24.093  23.112  0.00  0.00     0.154 A 
ATOM     15  N   UNL d   1     -23.462  25.350  23.316  0.00  0.00    -0.283 N 
ATOM     16  C   UNL d   1     -24.735  25.222  23.744  0.00  0.00     0.351 A 
ATOM     17  O   UNL d   1     -25.495  26.130  24.028  0.00  0.00    -0.244 OA
BRANCH  14  18
ATOM     18  C   UNL d   1     -21.550  23.786  22.637  0.00  0.00     0.244 C 
BRANCH  18  19
ATOM     19  O   UNL d   1     -21.464  24.020  21.230  0.00  0.00    -0.393 OA
ATOM     20  H   UNL d   1     -21.063  24.869  20.997  0.00  0.00     0.209 HD
ENDBRANCH  18  19
ENDBRANCH  14  18
BRANCH  15  21
ATOM     21  C   UNL d   1     -22.751  26.614  23.109  0.00  0.00     0.131 C 
ATOM     22  C   UNL d   1     -22.116  27.064  24.427  0.00  0.00     0.027 C 
ENDBRANCH  15  21
ENDBRANCH   1  12
BRANCH   9  23
ATOM     23  C   UNL d   1     -29.216  22.365  21.198  0.00  0.00     0.032 C 
ATOM     24  C   UNL d   1     -28.298  21.291  20.611  0.00  0.00     0.016 C 
ATOM     25  C   UNL d   1     -30.564  22.333  20.473  0.00  0.00     0.016 C 
ENDBRANCH   9  23
BRANCH   7  26
ATOM     26  C   UNL d   1     -32.014  20.711  24.779  0.00  0.00     0.084 A 
ATOM     27  C   UNL d   1     -33.194  21.150  24.192  0.00  0.00     0.062 A 
ATOM     28  C   UNL d   1     -34.398  20.571  24.545  0.00  0.00     0.026 A 
ATOM     29 CL   UNL d   1     -33.155  22.423  23.010  0.00  0.00    -0.082 Cl
ATOM     30  C   UNL d   1     -34.429  19.562  25.490  0.00  0.00     0.002 A 
ATOM     31  C   UNL d   1     -33.257  19.125  26.080  0.00  0.00     0.002 A 
ATOM     32  C   UNL d   1     -32.050  19.696  25.728  0.00  0.00     0.033 A 
ENDBRANCH   7  26
TORSDOF 6
ENDMDL
