MODEL 1
REMARK VINA RESULT:     -12.2      0.000      0.000
REMARK  4 active torsions:
REMARK  status: ('A' for Active; 'I' for Inactive)
REMARK       I    between atoms: C_2  and  N_4 
REMARK    1  A    between atoms: N_4  and  C_5 
REMARK    2  A    between atoms: C_8  and  C_9 
REMARK    3  A    between atoms: C_12  and  C_13 
REMARK    4  A    between atoms: C_16  and  C_17 
REMARK       I    between atoms: C_17  and  N_18 
ROOT
ATOM      1  C   UNL d   1     -25.306  23.506  23.227  0.00  0.00    -0.026 A 
ATOM      2  C   UNL d   1     -26.065  24.004  24.287  0.00  0.00     0.013 A 
ATOM      3  C   UNL d   1     -27.331  23.514  24.516  0.00  0.00     0.016 A 
ATOM      4  C   UNL d   1     -27.854  22.515  23.692  0.00  0.00     0.010 A 
ATOM      5  C   UNL d   1     -27.090  22.013  22.635  0.00  0.00     0.016 A 
ATOM      6  C   UNL d   1     -25.824  22.504  22.406  0.00  0.00     0.013 A 
ENDROOT
BRANCH   4   7
ATOM      7  C   UNL d   1     -29.212  21.989  23.937  0.00  0.00     0.139 A 
ATOM      8  N   UNL d   1     -29.589  21.263  25.032  0.00  0.00    -0.338 N 
ATOM      9  C   UNL d   1     -30.931  20.966  24.878  0.00  0.00     0.064 A 
ATOM     10  H   UNL d   1     -29.024  21.006  25.778  0.00  0.00     0.167 HD
ATOM     11  C   UNL d   1     -31.321  21.543  23.656  0.00  0.00     0.101 A 
ATOM     12  C   UNL d   1     -31.854  20.270  25.644  0.00  0.00     0.032 A 
ATOM     13  N   UNL d   1     -30.241  22.151  23.137  0.00  0.00    -0.227 NA
ATOM     14  C   UNL d   1     -32.658  21.403  23.223  0.00  0.00     0.062 A 
ATOM     15  C   UNL d   1     -33.564  20.699  24.012  0.00  0.00     0.020 A 
ATOM     16  C   UNL d   1     -33.160  20.141  25.211  0.00  0.00     0.003 A 
BRANCH  14  17
ATOM     17  C   UNL d   1     -33.090  21.998  21.946  0.00  0.00     0.251 C 
ATOM     18  N   UNL d   1     -32.281  21.943  20.869  0.00  0.00    -0.366 N 
ATOM     19  H   UNL d   1     -31.413  21.514  20.935  0.00  0.00     0.159 HD
ATOM     20  H   UNL d   1     -32.565  22.334  20.029  0.00  0.00     0.159 HD
ATOM     21  O   UNL d   1     -34.177  22.536  21.862  0.00  0.00    -0.268 OA
ENDBRANCH  14  17
ENDBRANCH   4   7
BRANCH   1  22
ATOM     22  C   UNL d   1     -23.945  24.039  22.977  0.00  0.00    -0.026 A 
ATOM     23  C   UNL d   1     -23.661  25.378  23.237  0.00  0.00     0.014 A 
ATOM     24  C   UNL d   1     -22.395  25.871  23.004  0.00  0.00     0.030 A 
ATOM     25  C   UNL d   1     -21.401  25.033  22.510  0.00  0.00     0.034 A 
ATOM     26  C   UNL d   1     -21.682  23.697  22.250  0.00  0.00     0.030 A 
ATOM     27  C   UNL d   1     -22.945  23.198  22.487  0.00  0.00     0.014 A 
BRANCH  25  28
ATOM     28  N   UNL d   1     -20.118  25.535  22.274  0.00  0.00    -0.328 N 
ATOM     29  C   UNL d   1     -19.136  25.321  23.172  0.00  0.00     0.218 C 
ATOM     30  C   UNL d   1     -17.785  25.962  22.978  0.00  0.00     0.117 C 
ATOM     31  O   UNL d   1     -19.339  24.614  24.137  0.00  0.00    -0.274 OA
ATOM     32  H   UNL d   1     -19.935  26.036  21.465  0.00  0.00     0.169 HD
ENDBRANCH  25  28
ENDBRANCH   1  22
TORSDOF 4
ENDMDL
