MODEL 1
REMARK VINA RESULT:     -11.2      0.000      0.000
REMARK  6 active torsions:
REMARK  status: ('A' for Active; 'I' for Inactive)
REMARK    1  A    between atoms: C_9  and  N_10 
REMARK       I    between atoms: N_10  and  C_11 
REMARK    2  A    between atoms: C_11  and  C_13 
REMARK    3  A    between atoms: C_17  and  N_18 
REMARK    4  A    between atoms: C_29  and  O_30 
REMARK    5  A    between atoms: O_30  and  C_31 
REMARK    6  A    between atoms: C_31  and  C_33 
ROOT
ATOM      1  C   UNL d   1     -24.172  24.618  23.615  0.00  0.00     0.068 A 
ATOM      2  C   UNL d   1     -25.076  25.141  24.547  0.00  0.00     0.064 A 
ATOM      3  C   UNL d   1     -26.321  24.572  24.691  0.00  0.00     0.146 A 
ATOM      4  F   UNL d   1     -27.196  25.082  25.586  0.00  0.00    -0.204 F 
ATOM      5  C   UNL d   1     -26.681  23.467  23.920  0.00  0.00     0.104 A 
ATOM      6  C   UNL d   1     -25.790  22.941  22.995  0.00  0.00     0.073 A 
ATOM      7  C   UNL d   1     -24.538  23.510  22.837  0.00  0.00     0.087 A 
ENDROOT
BRANCH   1   8
ATOM      8  C   UNL d   1     -22.842  25.227  23.454  0.00  0.00     0.259 C 
ATOM      9  N   UNL d   1     -21.779  24.708  24.101  0.00  0.00    -0.321 N 
ATOM     10  H   UNL d   1     -21.869  23.874  24.589  0.00  0.00     0.169 HD
ATOM     11  O   UNL d   1     -22.701  26.200  22.738  0.00  0.00    -0.267 OA
BRANCH   9  12
ATOM     12  C   UNL d   1     -20.546  25.371  24.068  0.00  0.00     0.063 A 
ATOM     13  C   UNL d   1     -20.272  26.374  24.988  0.00  0.00    -0.031 A 
ATOM     14  C   UNL d   1     -21.300  26.749  26.024  0.00  0.00     0.050 C 
ATOM     15  C   UNL d   1     -19.055  27.026  24.954  0.00  0.00     0.051 A 
ATOM     16  C   UNL d   1     -18.110  26.682  24.002  0.00  0.00     0.118 A 
ATOM     17  F   UNL d   1     -16.920  27.323  23.971  0.00  0.00    -0.206 F 
ATOM     18  C   UNL d   1     -18.381  25.683  23.083  0.00  0.00     0.068 A 
ATOM     19  C   UNL d   1     -19.595  25.023  23.118  0.00  0.00     0.064 A 
ATOM     20 CL   UNL d   1     -19.931  23.765  21.969  0.00  0.00    -0.082 Cl
ENDBRANCH   9  12
ENDBRANCH   1   8
BRANCH   7  21
ATOM     21  O   UNL d   1     -23.666  22.997  21.932  0.00  0.00    -0.336 OA
BRANCH  21  22
ATOM     22  C   UNL d   1     -23.937  23.254  20.553  0.00  0.00     0.232 C 
ATOM     23  C   UNL d   1     -22.642  23.658  19.845  0.00  0.00     0.049 C 
BRANCH  22  24
ATOM     24  C   UNL d   1     -24.501  21.990  19.900  0.00  0.00     0.413 C 
ATOM     25  F   UNL d   1     -23.911  21.809  18.646  0.00  0.00    -0.168 F 
ATOM     26  F   UNL d   1     -24.225  20.884  20.710  0.00  0.00    -0.168 F 
ATOM     27  F   UNL d   1     -25.886  22.122  19.748  0.00  0.00    -0.168 F 
ENDBRANCH  22  24
ENDBRANCH  21  22
ENDBRANCH   7  21
BRANCH   5  28
ATOM     28  N   UNL d   1     -27.944  22.892  24.075  0.00  0.00    -0.178 N 
ATOM     29  C   UNL d   1     -28.351  22.122  25.108  0.00  0.00     0.351 A 
ATOM     30  N   UNL d   1     -29.636  21.799  24.886  0.00  0.00    -0.284 N 
ATOM     31  O   UNL d   1     -27.678  21.784  26.066  0.00  0.00    -0.244 OA
ATOM     32  C   UNL d   1     -30.017  22.343  23.676  0.00  0.00     0.131 A 
ATOM     33  C   UNL d   1     -30.526  21.025  25.758  0.00  0.00     0.135 C 
ATOM     34  N   UNL d   1     -29.023  23.002  23.185  0.00  0.00    -0.149 NA
ATOM     35  C   UNL d   1     -31.388  22.159  23.068  0.00  0.00     0.081 C 
ATOM     36  C   UNL d   1     -32.343  21.704  24.180  0.00  0.00     0.009 C 
ATOM     37  C   UNL d   1     -31.713  20.524  24.927  0.00  0.00     0.021 C 
ENDBRANCH   5  28
TORSDOF 6
ENDMDL
