MODEL 1
REMARK VINA RESULT:     -10.9      0.000      0.000
REMARK  4 active torsions:
REMARK  status: ('A' for Active; 'I' for Inactive)
REMARK    1  A    between atoms: C_4  and  C_5 
REMARK    2  A    between atoms: C_5  and  O_7 
REMARK    3  A    between atoms: C_10  and  C_11 
REMARK    4  A    between atoms: C_14  and  C_15 
ROOT
ATOM      1  C   UNL d   1     -34.391  20.114  25.586  0.00  0.00     0.048 C 
ATOM      2  C   UNL d   1     -33.288  20.663  24.718  0.00  0.00    -0.059 A 
ATOM      3  C   UNL d   1     -33.572  21.068  23.427  0.00  0.00     0.027 A 
ATOM      4  C   UNL d   1     -32.565  21.584  22.614  0.00  0.00     0.069 A 
ATOM      5  C   UNL d   1     -31.248  21.677  23.115  0.00  0.00     0.102 A 
ATOM      6  N   UNL d   1     -30.089  22.114  22.591  0.00  0.00    -0.227 NA
ATOM      7  C   UNL d   1     -29.127  21.993  23.476  0.00  0.00     0.139 A 
ATOM      8  N   UNL d   1     -29.630  21.465  24.633  0.00  0.00    -0.338 N 
ATOM      9  H   UNL d   1     -29.132  21.275  25.444  0.00  0.00     0.167 HD
ATOM     10  C   UNL d   1     -30.980  21.255  24.429  0.00  0.00     0.064 A 
ATOM     11  C   UNL d   1     -32.004  20.751  25.218  0.00  0.00     0.038 A 
ENDROOT
BRANCH   7  12
ATOM     12  C   UNL d   1     -27.715  22.371  23.256  0.00  0.00     0.010 A 
ATOM     13  C   UNL d   1     -27.125  23.356  24.052  0.00  0.00     0.016 A 
ATOM     14  C   UNL d   1     -25.810  23.708  23.847  0.00  0.00     0.015 A 
ATOM     15  C   UNL d   1     -25.067  23.081  22.845  0.00  0.00    -0.006 A 
ATOM     16  C   UNL d   1     -25.656  22.098  22.051  0.00  0.00     0.015 A 
ATOM     17  C   UNL d   1     -26.970  21.740  22.258  0.00  0.00     0.016 A 
BRANCH  15  18
ATOM     18  C   UNL d   1     -23.650  23.462  22.626  0.00  0.00     0.084 A 
ATOM     19  N   UNL d   1     -22.775  23.381  23.622  0.00  0.00    -0.257 NA
ATOM     20  C   UNL d   1     -21.516  23.720  23.421  0.00  0.00     0.136 A 
ATOM     21  C   UNL d   1     -21.105  24.161  22.175  0.00  0.00     0.135 A 
ATOM     22  N   UNL d   1     -21.971  24.244  21.179  0.00  0.00    -0.269 NA
ATOM     23  C   UNL d   1     -23.232  23.902  21.369  0.00  0.00     0.148 A 
ENDBRANCH  15  18
ENDBRANCH   7  12
BRANCH   4  24
ATOM     24  C   UNL d   1     -32.870  22.020  21.241  0.00  0.00     0.178 C 
ATOM     25  O   UNL d   1     -34.008  22.318  20.937  0.00  0.00    -0.646 OA
BRANCH  24  26
ATOM     26  O   UNL d   1     -31.887  22.089  20.322  0.00  0.00    -0.773 OA
ATOM     27  H   UNL d   1     -31.035  21.699  20.558  0.00  0.00     0.167 HD
ENDBRANCH  24  26
ENDBRANCH   4  24
TORSDOF 4
ENDMDL
