MODEL 1
REMARK VINA RESULT:      -8.3      0.000      0.000
REMARK  7 active torsions:
REMARK  status: ('A' for Active; 'I' for Inactive)
REMARK    1  A    between atoms: O_2  and  C_3 
REMARK    2  A    between atoms: C_6  and  N_7 
REMARK       I    between atoms: N_7  and  C_8 
REMARK    3  A    between atoms: C_8  and  C_10 
REMARK    4  A    between atoms: C_14  and  N_15 
REMARK    5  A    between atoms: C_26  and  O_27 
REMARK    6  A    between atoms: O_27  and  C_28 
REMARK    7  A    between atoms: C_28  and  C_30 
ROOT
ATOM      1  C   UNL d   1     -22.155  24.583  22.597  0.00  0.00     0.068 A 
ATOM      2  C   UNL d   1     -22.611  23.364  22.084  0.00  0.00     0.064 A 
ATOM      3  C   UNL d   1     -23.895  22.942  22.349  0.00  0.00     0.146 A 
ATOM      4  F   UNL d   1     -24.332  21.763  21.859  0.00  0.00    -0.204 F 
ATOM      5  C   UNL d   1     -24.743  23.729  23.129  0.00  0.00     0.104 A 
ATOM      6  C   UNL d   1     -24.299  24.941  23.640  0.00  0.00     0.073 A 
ATOM      7  C   UNL d   1     -23.010  25.373  23.379  0.00  0.00     0.087 A 
ENDROOT
BRANCH   1   8
ATOM      8  C   UNL d   1     -20.783  25.037  22.315  0.00  0.00     0.260 C 
ATOM      9  N   UNL d   1     -19.823  24.901  23.252  0.00  0.00    -0.306 N 
ATOM     10  H   UNL d   1     -20.017  24.437  24.082  0.00  0.00     0.170 HD
ATOM     11  O   UNL d   1     -20.516  25.534  21.238  0.00  0.00    -0.267 OA
BRANCH   9  12
ATOM     12  C   UNL d   1     -18.550  25.426  23.027  0.00  0.00     0.152 A 
ATOM     13  C   UNL d   1     -18.231  26.705  23.485  0.00  0.00     0.057 A 
ATOM     14  C   UNL d   1     -16.956  27.183  23.240  0.00  0.00     0.063 A 
ATOM     15  C   UNL d   1     -16.069  26.358  22.550  0.00  0.00     0.185 A 
ATOM     16  N   UNL d   1     -16.460  25.158  22.153  0.00  0.00    -0.123 NA
ATOM     17  N   UNL d   1     -17.641  24.712  22.385  0.00  0.00    -0.130 NA
BRANCH  15  18
ATOM     18  O   UNL d   1     -14.808  26.784  22.286  0.00  0.00    -0.338 OA
ATOM     19  C   UNL d   1     -14.673  28.064  21.664  0.00  0.00     0.211 C 
ENDBRANCH  15  18
ENDBRANCH   9  12
ENDBRANCH   1   8
BRANCH   7  20
ATOM     20  O   UNL d   1     -22.575  26.556  23.880  0.00  0.00    -0.345 OA
BRANCH  20  21
ATOM     21  C   UNL d   1     -22.341  26.618  25.289  0.00  0.00     0.129 C 
ATOM     22  C   UNL d   1     -21.575  25.371  25.733  0.00  0.00     0.040 C 
BRANCH  21  23
ATOM     23  C   UNL d   1     -21.517  27.866  25.615  0.00  0.00     0.015 C 
ATOM     24  C   UNL d   1     -22.242  28.691  26.680  0.00  0.00     0.007 C 
ATOM     25  C   UNL d   1     -21.418  29.938  27.007  0.00  0.00     0.000 C 
ATOM     26  C   UNL d   1     -20.045  29.519  27.534  0.00  0.00     0.000 C 
ATOM     27  C   UNL d   1     -19.320  28.694  26.469  0.00  0.00     0.000 C 
ATOM     28  C   UNL d   1     -20.143  27.447  26.141  0.00  0.00     0.007 C 
ENDBRANCH  21  23
ENDBRANCH  20  21
ENDBRANCH   7  20
BRANCH   5  29
ATOM     29  N   UNL d   1     -26.045  23.296  23.394  0.00  0.00    -0.178 N 
ATOM     30  C   UNL d   1     -26.539  22.942  24.599  0.00  0.00     0.351 A 
ATOM     31  N   UNL d   1     -27.831  22.617  24.423  0.00  0.00    -0.284 N 
ATOM     32  O   UNL d   1     -25.928  22.919  25.653  0.00  0.00    -0.244 OA
ATOM     33  C   UNL d   1     -28.129  22.739  23.081  0.00  0.00     0.131 A 
ATOM     34  C   UNL d   1     -28.802  22.225  25.450  0.00  0.00     0.135 C 
ATOM     35  N   UNL d   1     -27.081  23.158  22.459  0.00  0.00    -0.149 NA
ATOM     36  C   UNL d   1     -29.480  22.410  22.489  0.00  0.00     0.081 C 
ATOM     37  C   UNL d   1     -30.508  22.396  23.629  0.00  0.00     0.009 C 
ATOM     38  C   UNL d   1     -29.979  21.518  24.768  0.00  0.00     0.021 C 
ENDBRANCH   5  29
TORSDOF 7
ENDMDL
