MODEL 1
REMARK VINA RESULT:     -11.1      0.000      0.000
REMARK  4 active torsions:
REMARK  status: ('A' for Active; 'I' for Inactive)
REMARK    1  A    between atoms: C_3  and  C_4 
REMARK    2  A    between atoms: C_7  and  C_8 
REMARK    3  A    between atoms: C_21  and  C_22 
REMARK    4  A    between atoms: C_22  and  O_24 
ROOT
ATOM      1  C   UNL d   1     -30.429  22.546  21.529  0.00  0.00     0.158 C 
ATOM      2  N   UNL d   1     -30.447  21.972  22.877  0.00  0.00    -0.333 N 
ATOM      3  C   UNL d   1     -29.372  21.826  23.712  0.00  0.00     0.141 A 
ATOM      4  N   UNL d   1     -29.759  21.282  24.840  0.00  0.00    -0.228 NA
ATOM      5  C   UNL d   1     -31.093  21.043  24.793  0.00  0.00     0.087 A 
ATOM      6  C   UNL d   1     -32.000  20.489  25.702  0.00  0.00     0.034 A 
ATOM      7  C   UNL d   1     -33.332  20.372  25.365  0.00  0.00     0.003 A 
ATOM      8  C   UNL d   1     -33.790  20.798  24.132  0.00  0.00     0.021 A 
ATOM      9  C   UNL d   1     -32.905  21.354  23.206  0.00  0.00     0.067 A 
ATOM     10  C   UNL d   1     -31.548  21.479  23.537  0.00  0.00     0.082 A 
ENDROOT
BRANCH   3  11
ATOM     11  C   UNL d   1     -27.986  22.228  23.393  0.00  0.00     0.010 A 
ATOM     12  C   UNL d   1     -27.359  23.229  24.138  0.00  0.00     0.016 A 
ATOM     13  C   UNL d   1     -26.065  23.597  23.845  0.00  0.00     0.013 A 
ATOM     14  C   UNL d   1     -25.385  22.979  22.796  0.00  0.00    -0.026 A 
ATOM     15  C   UNL d   1     -26.011  21.980  22.050  0.00  0.00     0.013 A 
ATOM     16  C   UNL d   1     -27.302  21.606  22.346  0.00  0.00     0.016 A 
BRANCH  14  17
ATOM     17  C   UNL d   1     -23.994  23.382  22.476  0.00  0.00    -0.026 A 
ATOM     18  C   UNL d   1     -23.628  23.646  21.157  0.00  0.00     0.012 A 
ATOM     19  C   UNL d   1     -22.333  24.024  20.867  0.00  0.00     0.001 A 
ATOM     20  C   UNL d   1     -21.396  24.131  21.879  0.00  0.00     0.000 A 
ATOM     21  C   UNL d   1     -21.755  23.872  23.190  0.00  0.00     0.001 A 
ATOM     22  C   UNL d   1     -23.048  23.497  23.494  0.00  0.00     0.012 A 
ENDBRANCH  14  17
ENDBRANCH   3  11
BRANCH   9  23
ATOM     23  C   UNL d   1     -33.394  21.805  21.892  0.00  0.00     0.178 C 
ATOM     24  O   UNL d   1     -33.221  21.113  20.909  0.00  0.00    -0.646 OA
BRANCH  23  25
ATOM     25  O   UNL d   1     -34.030  22.988  21.779  0.00  0.00    -0.773 OA
ATOM     26  H   UNL d   1     -34.997  22.971  21.810  0.00  0.00     0.167 HD
ENDBRANCH  23  25
ENDBRANCH   9  23
TORSDOF 4
ENDMDL
