MODEL 1
REMARK VINA RESULT:     -11.9      0.000      0.000
REMARK  4 active torsions:
REMARK  status: ('A' for Active; 'I' for Inactive)
REMARK    1  A    between atoms: C_4  and  C_5 
REMARK    2  A    between atoms: C_5  and  O_7 
REMARK    3  A    between atoms: C_11  and  C_12 
REMARK    4  A    between atoms: C_15  and  C_16 
ROOT
ATOM      1  C   UNL d   1     -34.098  21.665  22.107  0.00  0.00     0.048 C 
ATOM      2  C   UNL d   1     -32.739  21.713  22.755  0.00  0.00    -0.059 A 
ATOM      3  C   UNL d   1     -32.585  21.270  24.055  0.00  0.00     0.027 A 
ATOM      4  C   UNL d   1     -31.332  21.307  24.669  0.00  0.00     0.067 A 
ATOM      5  C   UNL d   1     -30.228  21.798  23.955  0.00  0.00     0.080 A 
ATOM      6  N   UNL d   1     -28.896  21.962  24.255  0.00  0.00    -0.337 N 
ATOM      7  H   UNL d   1     -28.464  21.740  25.094  0.00  0.00     0.167 HD
ATOM      8  C   UNL d   1     -28.293  22.497  23.147  0.00  0.00     0.142 A 
ATOM      9  N   UNL d   1     -29.180  22.659  22.196  0.00  0.00    -0.228 NA
ATOM     10  C   UNL d   1     -30.395  22.246  22.634  0.00  0.00     0.087 A 
ATOM     11  C   UNL d   1     -31.662  22.196  22.043  0.00  0.00     0.040 A 
ENDROOT
BRANCH   8  12
ATOM     12  C   UNL d   1     -26.859  22.834  23.039  0.00  0.00     0.049 A 
ATOM     13  C   UNL d   1     -26.027  22.093  22.194  0.00  0.00     0.131 A 
ATOM     14  C   UNL d   1     -24.687  22.410  22.095  0.00  0.00     0.055 A 
ATOM     15  F   UNL d   1     -26.532  21.067  21.475  0.00  0.00    -0.205 F 
ATOM     16  C   UNL d   1     -24.167  23.473  22.834  0.00  0.00    -0.023 A 
ATOM     17  C   UNL d   1     -24.997  24.208  23.681  0.00  0.00     0.013 A 
ATOM     18  C   UNL d   1     -26.333  23.894  23.782  0.00  0.00     0.019 A 
BRANCH  16  19
ATOM     19  C   UNL d   1     -22.728  23.817  22.723  0.00  0.00    -0.026 A 
ATOM     20  C   UNL d   1     -21.928  23.849  23.863  0.00  0.00     0.012 A 
ATOM     21  C   UNL d   1     -20.589  24.171  23.754  0.00  0.00     0.001 A 
ATOM     22  C   UNL d   1     -20.044  24.460  22.516  0.00  0.00     0.000 A 
ATOM     23  C   UNL d   1     -20.835  24.429  21.381  0.00  0.00     0.001 A 
ATOM     24  C   UNL d   1     -22.172  24.105  21.478  0.00  0.00     0.012 A 
ENDBRANCH  16  19
ENDBRANCH   8  12
BRANCH   4  25
ATOM     25  C   UNL d   1     -31.170  20.836  26.056  0.00  0.00     0.178 C 
ATOM     26  O   UNL d   1     -30.530  21.497  26.851  0.00  0.00    -0.646 OA
BRANCH  25  27
ATOM     27  O   UNL d   1     -31.731  19.675  26.443  0.00  0.00    -0.773 OA
ATOM     28  H   UNL d   1     -32.404  19.296  25.861  0.00  0.00     0.167 HD
ENDBRANCH  25  27
ENDBRANCH   4  25
TORSDOF 4
ENDMDL
