MODEL 1
REMARK VINA RESULT:     -11.7      0.000      0.000
REMARK  6 active torsions:
REMARK  status: ('A' for Active; 'I' for Inactive)
REMARK    1  A    between atoms: C_4  and  N_5 
REMARK       I    between atoms: N_5  and  C_6 
REMARK    2  A    between atoms: C_6  and  C_8 
REMARK    3  A    between atoms: C_9  and  O_10 
REMARK    4  A    between atoms: C_18  and  C_19 
REMARK    5  A    between atoms: C_23  and  O_24 
REMARK    6  A    between atoms: O_24  and  C_25 
ROOT
ATOM      1  C   UNL d   1     -24.392  21.824  20.342  0.00  0.00     0.051 C 
ATOM      2  C   UNL d   1     -25.103  22.315  21.576  0.00  0.00    -0.026 A 
ATOM      3  C   UNL d   1     -26.307  21.753  21.950  0.00  0.00     0.039 A 
ATOM      4  C   UNL d   1     -26.963  22.207  23.086  0.00  0.00     0.042 A 
ATOM      5  C   UNL d   1     -26.406  23.226  23.847  0.00  0.00    -0.025 A 
ATOM      6  C   UNL d   1     -25.204  23.792  23.469  0.00  0.00     0.047 A 
ATOM      7  C   UNL d   1     -24.548  23.334  22.336  0.00  0.00     0.082 A 
ENDROOT
BRANCH   4   8
ATOM      8  N   UNL d   1     -28.184  21.636  23.466  0.00  0.00    -0.322 N 
ATOM      9  C   UNL d   1     -29.342  22.235  23.128  0.00  0.00     0.263 C 
ATOM     10  O   UNL d   1     -29.329  23.239  22.438  0.00  0.00    -0.267 OA
ATOM     11  H   UNL d   1     -28.195  20.808  23.972  0.00  0.00     0.169 HD
BRANCH   9  12
ATOM     12  C   UNL d   1     -30.615  21.682  23.591  0.00  0.00     0.115 A 
ATOM     13  C   UNL d   1     -31.818  21.616  22.859  0.00  0.00     0.078 A 
ATOM     14  N   UNL d   1     -32.746  21.026  23.669  0.00  0.00    -0.242 N 
ATOM     15  C   UNL d   1     -32.168  22.019  21.564  0.00  0.00     0.033 A 
ATOM     16  N   UNL d   1     -32.128  20.729  24.891  0.00  0.00    -0.141 NA
ATOM     17  C   UNL d   1     -34.016  20.828  23.221  0.00  0.00     0.119 A 
ATOM     18  C   UNL d   1     -30.873  21.106  24.853  0.00  0.00     0.200 A 
ATOM     19  C   UNL d   1     -34.377  21.210  21.974  0.00  0.00     0.019 A 
ATOM     20  C   UNL d   1     -33.443  21.817  21.124  0.00  0.00     0.004 A 
BRANCH  18  21
ATOM     21  O   UNL d   1     -29.973  20.969  25.860  0.00  0.00    -0.343 OA
ATOM     22  H   UNL d   1     -29.078  20.761  25.561  0.00  0.00     0.219 HD
ENDBRANCH  18  21
ENDBRANCH   9  12
ENDBRANCH   4   8
BRANCH   5  23
ATOM     23  C   UNL d   1     -27.116  23.720  25.081  0.00  0.00     0.013 C 
ATOM     24  C   UNL d   1     -26.931  22.708  26.215  0.00  0.00     0.015 C 
ATOM     25  C   UNL d   1     -26.531  25.069  25.502  0.00  0.00     0.015 C 
ENDBRANCH   5  23
BRANCH   7  26
ATOM     26  O   UNL d   1     -23.362  23.889  21.967  0.00  0.00    -0.310 OA
BRANCH  26  27
ATOM     27  C   UNL d   1     -22.770  24.760  22.827  0.00  0.00     0.076 A 
ATOM     28  C   UNL d   1     -21.664  24.366  23.565  0.00  0.00     0.037 A 
ATOM     29  C   UNL d   1     -21.065  25.253  24.437  0.00  0.00     0.003 A 
ATOM     30  C   UNL d   1     -21.567  26.534  24.575  0.00  0.00     0.000 A 
ATOM     31  C   UNL d   1     -22.669  26.930  23.839  0.00  0.00     0.003 A 
ATOM     32  C   UNL d   1     -23.269  26.047  22.962  0.00  0.00     0.037 A 
ENDBRANCH  26  27
ENDBRANCH   7  26
TORSDOF 6
ENDMDL
