MODEL 1
REMARK VINA RESULT:     -11.4      0.000      0.000
REMARK  6 active torsions:
REMARK  status: ('A' for Active; 'I' for Inactive)
REMARK    1  A    between atoms: C_5  and  C_6 
REMARK    2  A    between atoms: C_6  and  O_8 
REMARK    3  A    between atoms: C_10  and  C_11 
REMARK    4  A    between atoms: C_14  and  C_15 
REMARK    5  A    between atoms: C_19  and  C_20 
REMARK    6  A    between atoms: C_20  and  O_21 
ROOT
ATOM      1  C   UNL d   1     -34.651  21.585  21.526  0.00  0.00     0.091 C 
ATOM      2  C   UNL d   1     -33.261  21.706  22.092  0.00  0.00     0.101 A 
ATOM      3  N   UNL d   1     -32.933  21.452  23.328  0.00  0.00    -0.233 NA
ATOM      4  C   UNL d   1     -31.614  21.660  23.503  0.00  0.00     0.102 A 
ATOM      5  C   UNL d   1     -30.751  21.540  24.616  0.00  0.00     0.069 A 
ATOM      6  C   UNL d   1     -29.400  21.829  24.471  0.00  0.00     0.033 A 
ATOM      7  C   UNL d   1     -28.900  22.246  23.238  0.00  0.00    -0.023 A 
ATOM      8  C   UNL d   1     -29.746  22.367  22.138  0.00  0.00     0.044 A 
ATOM      9  C   UNL d   1     -31.094  22.077  22.265  0.00  0.00     0.064 A 
ATOM     10  N   UNL d   1     -32.165  22.095  21.391  0.00  0.00    -0.343 N 
ATOM     11  H   UNL d   1     -32.138  22.340  20.453  0.00  0.00     0.167 HD
ENDROOT
BRANCH   7  12
ATOM     12  C   UNL d   1     -27.457  22.558  23.096  0.00  0.00    -0.026 A 
ATOM     13  C   UNL d   1     -26.690  21.892  22.140  0.00  0.00     0.013 A 
ATOM     14  C   UNL d   1     -25.351  22.186  22.004  0.00  0.00     0.013 A 
ATOM     15  C   UNL d   1     -24.760  23.141  22.830  0.00  0.00    -0.026 A 
ATOM     16  C   UNL d   1     -25.526  23.808  23.785  0.00  0.00     0.013 A 
ATOM     17  C   UNL d   1     -26.866  23.518  23.917  0.00  0.00     0.013 A 
BRANCH  15  18
ATOM     18  C   UNL d   1     -23.317  23.453  22.687  0.00  0.00    -0.025 A 
ATOM     19  C   UNL d   1     -22.842  24.047  21.519  0.00  0.00     0.021 A 
ATOM     20  C   UNL d   1     -21.498  24.333  21.391  0.00  0.00    -0.034 A 
ATOM     21  C   UNL d   1     -20.624  24.038  22.422  0.00  0.00     0.009 A 
ATOM     22  C   UNL d   1     -21.089  23.444  23.581  0.00  0.00     0.002 A 
ATOM     23  C   UNL d   1     -22.431  23.152  23.720  0.00  0.00     0.012 A 
BRANCH  20  24
ATOM     24  C   UNL d   1     -20.983  24.976  20.129  0.00  0.00     0.202 C 
BRANCH  24  25
ATOM     25  O   UNL d   1     -22.085  25.433  19.342  0.00  0.00    -0.396 OA
ATOM     26  H   UNL d   1     -22.324  26.356  19.499  0.00  0.00     0.209 HD
ENDBRANCH  24  25
ENDBRANCH  20  24
ENDBRANCH  15  18
ENDBRANCH   7  12
BRANCH   5  27
ATOM     27  C   UNL d   1     -31.281  21.105  25.919  0.00  0.00     0.178 C 
ATOM     28  O   UNL d   1     -30.532  20.975  26.867  0.00  0.00    -0.646 OA
BRANCH  27  29
ATOM     29  O   UNL d   1     -32.597  20.851  26.061  0.00  0.00    -0.773 OA
ATOM     30  H   UNL d   1     -32.858  19.927  26.171  0.00  0.00     0.167 HD
ENDBRANCH  27  29
ENDBRANCH   5  27
TORSDOF 6
ENDMDL
