MODEL 1
REMARK VINA RESULT:      -8.9      0.000      0.000
REMARK  9 active torsions:
REMARK  status: ('A' for Active; 'I' for Inactive)
REMARK    1  A    between atoms: C_2  and  C_3 
REMARK    2  A    between atoms: N_5  and  C_6 
REMARK    3  A    between atoms: C_8  and  O_9 
REMARK    4  A    between atoms: O_9  and  C_10 
REMARK    5  A    between atoms: C_10  and  C_12 
REMARK    6  A    between atoms: C_16  and  C_17 
REMARK       I    between atoms: C_17  and  N_19 
REMARK    7  A    between atoms: N_19  and  C_20 
REMARK    8  A    between atoms: C_20  and  C_21 
REMARK    9  A    between atoms: C_20  and  C_23 
ROOT
ATOM      1  C   UNL d   1     -27.015  23.026  24.048  0.00  0.00     0.104 A 
ATOM      2  C   UNL d   1     -27.955  22.487  23.181  0.00  0.00     0.073 A 
ATOM      3  C   UNL d   1     -29.119  21.929  23.682  0.00  0.00     0.087 A 
ATOM      4  C   UNL d   1     -29.349  21.920  25.065  0.00  0.00     0.068 A 
ATOM      5  C   UNL d   1     -28.396  22.466  25.932  0.00  0.00     0.064 A 
ATOM      6  C   UNL d   1     -27.239  23.013  25.425  0.00  0.00     0.146 A 
ATOM      7  F   UNL d   1     -26.318  23.539  26.262  0.00  0.00    -0.204 F 
ENDROOT
BRANCH   1   8
ATOM      8  N   UNL d   1     -25.839  23.583  23.540  0.00  0.00    -0.178 N 
ATOM      9  N   UNL d   1     -25.381  24.892  23.749  0.00  0.00    -0.149 NA
ATOM     10  C   UNL d   1     -24.260  25.032  23.118  0.00  0.00     0.130 A 
ATOM     11  N   UNL d   1     -23.953  23.850  22.492  0.00  0.00    -0.289 N 
ATOM     12  C   UNL d   1     -24.929  22.960  22.762  0.00  0.00     0.351 A 
ATOM     13  C   UNL d   1     -22.764  23.596  21.674  0.00  0.00     0.162 C 
ATOM     14  O   UNL d   1     -24.982  21.807  22.375  0.00  0.00    -0.244 OA
BRANCH  10  15
ATOM     15  C   UNL d   1     -23.428  26.288  23.078  0.00  0.00     0.076 C 
ATOM     16  C   UNL d   1     -22.397  26.253  24.207  0.00  0.00     0.013 C 
ENDBRANCH  10  15
ENDBRANCH   1   8
BRANCH   3  17
ATOM     17  O   UNL d   1     -30.038  21.397  22.836  0.00  0.00    -0.345 OA
BRANCH  17  18
ATOM     18  C   UNL d   1     -30.928  22.309  22.189  0.00  0.00     0.129 C 
ATOM     19  C   UNL d   1     -30.505  22.486  20.729  0.00  0.00     0.040 C 
BRANCH  18  20
ATOM     20  C   UNL d   1     -32.353  21.755  22.244  0.00  0.00     0.015 C 
ATOM     21  C   UNL d   1     -33.388  22.767  22.762  0.00  0.00     0.007 C 
ATOM     22  C   UNL d   1     -34.341  22.225  21.685  0.00  0.00     0.001 C 
ATOM     23  C   UNL d   1     -33.087  21.811  20.894  0.00  0.00     0.007 C 
ENDBRANCH  18  20
ENDBRANCH  17  18
ENDBRANCH   3  17
BRANCH   4  24
ATOM     24  C   UNL d   1     -30.588  21.334  25.605  0.00  0.00     0.254 C 
ATOM     25  O   UNL d   1     -31.242  21.944  26.429  0.00  0.00    -0.268 OA
ATOM     26  N   UNL d   1     -30.999  20.122  25.181  0.00  0.00    -0.352 N 
ATOM     27  H   UNL d   1     -30.480  19.636  24.522  0.00  0.00     0.163 HD
BRANCH  26  28
ATOM     28  C   UNL d   1     -32.231  19.538  25.718  0.00  0.00     0.084 C 
BRANCH  28  29
ATOM     29  C   UNL d   1     -33.345  19.648  24.674  0.00  0.00     0.021 C 
ATOM     30  C   UNL d   1     -34.631  20.127  25.351  0.00  0.00     0.007 C 
ENDBRANCH  28  29
BRANCH  28  31
ATOM     31  C   UNL d   1     -31.993  18.064  26.055  0.00  0.00     0.021 C 
ATOM     32  C   UNL d   1     -30.642  17.914  26.756  0.00  0.00     0.007 C 
ENDBRANCH  28  31
ENDBRANCH  26  28
ENDBRANCH   4  24
TORSDOF 9
ENDMDL
