MODEL 1
REMARK VINA RESULT:     -11.3      0.000      0.000
REMARK  8 active torsions:
REMARK  status: ('A' for Active; 'I' for Inactive)
REMARK    1  A    between atoms: O_2  and  C_3 
REMARK    2  A    between atoms: C_7  and  C_8 
REMARK    3  A    between atoms: C_11  and  N_12 
REMARK    4  A    between atoms: N_12  and  C_13 
REMARK    5  A    between atoms: C_16  and  C_17 
REMARK    6  A    between atoms: C_21  and  C_22 
REMARK    7  A    between atoms: C_22  and  O_24 
REMARK    8  A    between atoms: C_26  and  C_27 
ROOT
ATOM      1  C   UNL d   1     -24.426  23.502  22.548  0.00  0.00     0.082 A 
ATOM      2  N   UNL d   1     -24.977  22.324  22.282  0.00  0.00    -0.257 NA
ATOM      3  C   UNL d   1     -26.118  21.958  22.826  0.00  0.00     0.146 A 
ATOM      4  C   UNL d   1     -26.791  22.799  23.706  0.00  0.00     0.051 A 
ATOM      5  C   UNL d   1     -26.240  24.042  24.014  0.00  0.00     0.049 A 
ATOM      6  C   UNL d   1     -25.042  24.397  23.421  0.00  0.00     0.079 A 
ENDROOT
BRANCH   4   7
ATOM      7  N   UNL d   1     -28.001  22.401  24.279  0.00  0.00    -0.354 N 
ATOM      8  H   UNL d   1     -28.042  22.191  25.226  0.00  0.00     0.166 HD
BRANCH   7   9
ATOM      9  C   UNL d   1     -29.143  22.306  23.496  0.00  0.00     0.049 A 
ATOM     10  C   UNL d   1     -30.357  21.890  24.066  0.00  0.00     0.064 A 
ATOM     11  C   UNL d   1     -31.500  21.799  23.266  0.00  0.00     0.028 A 
ATOM     12  C   UNL d   1     -31.428  22.116  21.927  0.00  0.00    -0.053 A 
ATOM     13  C   UNL d   1     -30.228  22.525  21.368  0.00  0.00     0.010 A 
ATOM     14  C   UNL d   1     -29.093  22.625  22.145  0.00  0.00     0.031 A 
BRANCH  10  15
ATOM     15  C   UNL d   1     -30.426  21.553  25.498  0.00  0.00     0.178 C 
ATOM     16  O   UNL d   1     -31.356  21.952  26.172  0.00  0.00    -0.646 OA
BRANCH  15  17
ATOM     17  O   UNL d   1     -29.459  20.802  26.062  0.00  0.00    -0.773 OA
ATOM     18  H   UNL d   1     -29.572  20.568  26.993  0.00  0.00     0.167 HD
ENDBRANCH  15  17
ENDBRANCH  10  15
BRANCH  12  19
ATOM     19  C   UNL d   1     -32.661  22.016  21.067  0.00  0.00     0.018 A 
ATOM     20  C   UNL d   1     -33.583  20.817  21.291  0.00  0.00     0.010 A 
ATOM     21  C   UNL d   1     -34.017  22.211  21.750  0.00  0.00     0.010 A 
ENDBRANCH  12  19
ENDBRANCH   7   9
ENDBRANCH   4   7
BRANCH   6  22
ATOM     22  C   UNL d   1     -24.410  25.732  23.718  0.00  0.00     0.419 C 
ATOM     23  F   UNL d   1     -23.256  25.541  24.485  0.00  0.00    -0.166 F 
ATOM     24  F   UNL d   1     -25.315  26.530  24.426  0.00  0.00    -0.166 F 
ATOM     25  F   UNL d   1     -24.072  26.365  22.516  0.00  0.00    -0.166 F 
ENDBRANCH   6  22
BRANCH   1  26
ATOM     26  C   UNL d   1     -23.138  23.869  21.911  0.00  0.00    -0.004 A 
ATOM     27  C   UNL d   1     -23.104  24.249  20.570  0.00  0.00     0.014 A 
ATOM     28  C   UNL d   1     -21.905  24.596  19.981  0.00  0.00     0.004 A 
ATOM     29  C   UNL d   1     -20.734  24.557  20.714  0.00  0.00     0.037 A 
ATOM     30  C   UNL d   1     -20.758  24.176  22.049  0.00  0.00     0.069 A 
ATOM     31  C   UNL d   1     -21.957  23.832  22.649  0.00  0.00     0.050 A 
BRANCH  30  32
ATOM     32  O   UNL d   1     -19.604  24.140  22.766  0.00  0.00    -0.356 OA
ATOM     33  C   UNL d   1     -19.657  24.634  24.106  0.00  0.00     0.210 C 
ENDBRANCH  30  32
ENDBRANCH   1  26
TORSDOF 8
ENDMDL
