MODEL 1
REMARK VINA RESULT:      -9.0      0.000      0.000
REMARK  6 active torsions:
REMARK  status: ('A' for Active; 'I' for Inactive)
REMARK    1  A    between atoms: C_2  and  O_3 
REMARK    2  A    between atoms: O_3  and  C_4 
REMARK    3  A    between atoms: C_4  and  C_6 
REMARK    4  A    between atoms: C_8  and  N_9 
REMARK    5  A    between atoms: N_9  and  C_10 
REMARK    6  A    between atoms: C_17  and  C_18 
ROOT
ATOM      1  C   UNL d   1     -23.388  23.627  20.928  0.00  0.00     0.113 A 
ATOM      2  S   UNL d   1     -24.401  22.348  20.264  0.00  0.00    -0.044 SA
ATOM      3  C   UNL d   1     -25.151  22.129  21.783  0.00  0.00     0.172 A 
ATOM      4  N   UNL d   1     -24.666  22.956  22.663  0.00  0.00    -0.222 NA
ATOM      5  C   UNL d   1     -23.721  23.778  22.260  0.00  0.00     0.093 A 
ENDROOT
BRANCH   3   6
ATOM      6  N   UNL d   1     -26.142  21.205  22.042  0.00  0.00    -0.335 N 
ATOM      7  H   UNL d   1     -25.925  20.261  22.084  0.00  0.00     0.168 HD
BRANCH   6   8
ATOM      8  C   UNL d   1     -27.458  21.630  22.245  0.00  0.00     0.034 A 
ATOM      9  C   UNL d   1     -27.929  21.842  23.534  0.00  0.00     0.029 A 
ATOM     10  C   UNL d   1     -29.230  22.261  23.731  0.00  0.00     0.002 A 
ATOM     11  C   UNL d   1     -30.063  22.471  22.648  0.00  0.00     0.000 A 
ATOM     12  C   UNL d   1     -29.596  22.261  21.362  0.00  0.00     0.002 A 
ATOM     13  C   UNL d   1     -28.295  21.846  21.158  0.00  0.00     0.029 A 
ENDBRANCH   6   8
ENDBRANCH   3   6
BRANCH   1  14
ATOM     14  C   UNL d   1     -22.412  24.369  20.223  0.00  0.00     0.302 C 
ATOM     15  O   UNL d   1     -22.736  25.367  19.605  0.00  0.00    -0.259 OA
BRANCH  14  16
ATOM     16  O   UNL d   1     -21.122  23.972  20.235  0.00  0.00    -0.317 OA
BRANCH  16  17
ATOM     17  C   UNL d   1     -20.178  24.850  20.851  0.00  0.00     0.174 C 
ATOM     18  C   UNL d   1     -19.309  24.058  21.830  0.00  0.00     0.034 C 
ENDBRANCH  16  17
ENDBRANCH  14  16
ENDBRANCH   1  14
BRANCH   5  19
ATOM     19  C   UNL d   1     -23.076  24.772  23.150  0.00  0.00    -0.006 A 
ATOM     20  C   UNL d   1     -23.529  26.091  23.170  0.00  0.00     0.014 A 
ATOM     21  C   UNL d   1     -22.924  27.012  24.001  0.00  0.00     0.001 A 
ATOM     22  C   UNL d   1     -21.871  26.628  24.812  0.00  0.00     0.000 A 
ATOM     23  C   UNL d   1     -21.417  25.322  24.796  0.00  0.00     0.001 A 
ATOM     24  C   UNL d   1     -22.018  24.390  23.974  0.00  0.00     0.014 A 
ENDBRANCH   5  19
TORSDOF 6
ENDMDL
