MODEL 1
REMARK VINA RESULT:     -10.3      0.000      0.000
REMARK  7 active torsions:
REMARK  status: ('A' for Active; 'I' for Inactive)
REMARK    1  A    between atoms: C_2  and  O_3 
REMARK    2  A    between atoms: O_3  and  C_4 
REMARK    3  A    between atoms: C_9  and  C_10 
REMARK    4  A    between atoms: C_14  and  N_15 
REMARK       I    between atoms: N_15  and  C_16 
REMARK    5  A    between atoms: C_16  and  C_18 
REMARK    6  A    between atoms: C_22  and  C_23 
REMARK    7  A    between atoms: C_23  and  O_25 
ROOT
ATOM      1  C   UNL d   1     -24.768  23.007  22.929  0.00  0.00    -0.017 A 
ATOM      2  C   UNL d   1     -25.284  22.094  22.011  0.00  0.00     0.057 A 
ATOM      3  C   UNL d   1     -26.591  21.661  22.129  0.00  0.00     0.147 A 
ATOM      4  F   UNL d   1     -27.090  20.771  21.244  0.00  0.00    -0.204 F 
ATOM      5  C   UNL d   1     -27.395  22.146  23.156  0.00  0.00     0.113 A 
ATOM      6  C   UNL d   1     -26.883  23.061  24.069  0.00  0.00     0.147 A 
ATOM      7  F   UNL d   1     -27.665  23.531  25.066  0.00  0.00    -0.204 F 
ATOM      8  C   UNL d   1     -25.574  23.491  23.958  0.00  0.00     0.057 A 
ENDROOT
BRANCH   5   9
ATOM      9  N   UNL d   1     -28.721  21.710  23.271  0.00  0.00    -0.318 N 
ATOM     10  C   UNL d   1     -29.715  22.426  22.708  0.00  0.00     0.257 C 
ATOM     11  O   UNL d   1     -29.455  23.390  22.015  0.00  0.00    -0.267 OA
ATOM     12  H   UNL d   1     -28.923  20.895  23.755  0.00  0.00     0.169 HD
BRANCH  10  13
ATOM     13  C   UNL d   1     -31.117  22.038  22.933  0.00  0.00     0.056 A 
ATOM     14  C   UNL d   1     -31.637  21.584  24.215  0.00  0.00     0.060 A 
ATOM     15  C   UNL d   1     -32.951  21.294  24.156  0.00  0.00     0.068 A 
ATOM     16  S   UNL d   1     -33.568  21.546  22.590  0.00  0.00    -0.112 SA
ATOM     17  C   UNL d   1     -32.063  22.056  21.976  0.00  0.00     0.067 A 
BRANCH  14  18
ATOM     18  C   UNL d   1     -30.824  21.459  25.432  0.00  0.00     0.177 C 
ATOM     19  O   UNL d   1     -31.015  22.209  26.369  0.00  0.00    -0.646 OA
BRANCH  18  20
ATOM     20  O   UNL d   1     -29.868  20.512  25.511  0.00  0.00    -0.773 OA
ATOM     21  H   UNL d   1     -29.456  20.375  26.375  0.00  0.00     0.167 HD
ENDBRANCH  18  20
ENDBRANCH  14  18
ENDBRANCH  10  13
ENDBRANCH   5   9
BRANCH   1  22
ATOM     22  C   UNL d   1     -23.364  23.468  22.808  0.00  0.00     0.008 A 
ATOM     23  C   UNL d   1     -22.893  23.971  21.591  0.00  0.00     0.079 A 
ATOM     24  C   UNL d   1     -21.578  24.400  21.487  0.00  0.00     0.037 A 
ATOM     25  C   UNL d   1     -20.739  24.330  22.582  0.00  0.00     0.003 A 
ATOM     26  C   UNL d   1     -21.202  23.833  23.787  0.00  0.00     0.001 A 
ATOM     27  C   UNL d   1     -22.508  23.401  23.905  0.00  0.00     0.015 A 
BRANCH  23  28
ATOM     28  O   UNL d   1     -23.719  24.038  20.515  0.00  0.00    -0.351 OA
BRANCH  28  29
ATOM     29  C   UNL d   1     -23.330  23.306  19.352  0.00  0.00     0.171 C 
ATOM     30  C   UNL d   1     -24.504  22.450  18.871  0.00  0.00     0.034 C 
ENDBRANCH  28  29
ENDBRANCH  23  28
ENDBRANCH   1  22
TORSDOF 7
ENDMDL
