MODEL 1
REMARK VINA RESULT:      -9.9      0.000      0.000
REMARK  3 active torsions:
REMARK  status: ('A' for Active; 'I' for Inactive)
REMARK    1  A    between atoms: C_3  and  O_4 
REMARK    2  A    between atoms: C_5  and  N_6 
REMARK    3  A    between atoms: N_6  and  C_7 
ROOT
ATOM      1  O   UNL d   1     -30.558  20.220  26.597  0.00  0.00    -0.284 OA
ATOM      2  C   UNL d   1     -30.512  20.891  25.583  0.00  0.00     0.218 A 
ATOM      3  C   UNL d   1     -29.293  21.639  25.251  0.00  0.00     0.148 A 
ATOM      4  C   UNL d   1     -29.225  22.392  24.125  0.00  0.00     0.121 A 
ATOM      5  C   UNL d   1     -30.374  22.473  23.202  0.00  0.00     0.212 A 
ATOM      6  O   UNL d   1     -30.303  23.151  22.196  0.00  0.00    -0.285 OA
ATOM      7  C   UNL d   1     -31.619  21.734  23.514  0.00  0.00     0.031 A 
ATOM      8  C   UNL d   1     -32.715  21.798  22.664  0.00  0.00     0.016 A 
ATOM      9  C   UNL d   1     -33.869  21.092  22.972  0.00  0.00     0.001 A 
ATOM     10  C   UNL d   1     -33.933  20.328  24.121  0.00  0.00     0.001 A 
ATOM     11  C   UNL d   1     -32.847  20.254  24.978  0.00  0.00     0.016 A 
ATOM     12  C   UNL d   1     -31.685  20.955  24.682  0.00  0.00     0.031 A 
ENDROOT
BRANCH   4  13
ATOM     13  N   UNL d   1     -28.063  23.090  23.834  0.00  0.00    -0.351 N 
ATOM     14  H   UNL d   1     -27.899  23.953  24.246  0.00  0.00     0.166 HD
BRANCH  13  15
ATOM     15  C   UNL d   1     -27.128  22.552  22.949  0.00  0.00     0.032 A 
ATOM     16  C   UNL d   1     -25.780  22.859  23.087  0.00  0.00     0.029 A 
ATOM     17  C   UNL d   1     -24.858  22.324  22.208  0.00  0.00     0.002 A 
ATOM     18  C   UNL d   1     -25.275  21.483  21.192  0.00  0.00     0.000 A 
ATOM     19  C   UNL d   1     -26.616  21.175  21.052  0.00  0.00     0.002 A 
ATOM     20  C   UNL d   1     -27.543  21.702  21.930  0.00  0.00     0.029 A 
ENDBRANCH  13  15
ENDBRANCH   4  13
BRANCH   3  21
ATOM     21  O   UNL d   1     -28.219  21.576  26.081  0.00  0.00    -0.355 OA
ATOM     22  H   UNL d   1     -28.172  20.763  26.602  0.00  0.00     0.218 HD
ENDBRANCH   3  21
TORSDOF 3
ENDMDL
