MODEL 1
REMARK VINA RESULT:     -10.2      0.000      0.000
REMARK  6 active torsions:
REMARK  status: ('A' for Active; 'I' for Inactive)
REMARK    1  A    between atoms: C_2  and  C_4 
REMARK    2  A    between atoms: N_6  and  C_7 
REMARK    3  A    between atoms: C_21  and  N_22 
REMARK    4  A    between atoms: C_24  and  C_25 
REMARK    5  A    between atoms: C_25  and  O_26 
REMARK    6  A    between atoms: N_27  and  C_28 
ROOT
ATOM      1  C   UNL d   1     -25.765  24.014  23.842  0.00  0.00    -0.004 A 
ATOM      2  C   UNL d   1     -24.444  24.156  23.566  0.00  0.00     0.113 A 
ATOM      3  N   UNL d   1     -23.848  23.517  22.518  0.00  0.00    -0.288 N 
ATOM      4  C   UNL d   1     -24.527  22.702  21.689  0.00  0.00     0.263 A 
ATOM      5  O   UNL d   1     -23.954  22.151  20.766  0.00  0.00    -0.267 OA
ATOM      6  C   UNL d   1     -25.961  22.482  21.903  0.00  0.00     0.047 A 
ATOM      7  C   UNL d   1     -26.709  21.647  21.072  0.00  0.00     0.062 A 
ATOM      8  C   UNL d   1     -28.043  21.472  21.310  0.00  0.00     0.146 A 
ATOM      9  F   UNL d   1     -28.766  20.664  20.504  0.00  0.00    -0.204 F 
ATOM     10  C   UNL d   1     -28.668  22.120  22.380  0.00  0.00     0.103 A 
ATOM     11  C   UNL d   1     -27.947  22.957  23.213  0.00  0.00     0.048 A 
ATOM     12  C   UNL d   1     -26.586  23.140  22.986  0.00  0.00    -0.006 A 
ENDROOT
BRANCH  10  13
ATOM     13  N   UNL d   1     -30.034  21.927  22.605  0.00  0.00    -0.178 N 
ATOM     14  C   UNL d   1     -31.025  22.107  21.706  0.00  0.00     0.351 A 
ATOM     15  N   UNL d   1     -32.188  21.818  22.326  0.00  0.00    -0.283 N 
ATOM     16  O   UNL d   1     -30.895  22.469  20.551  0.00  0.00    -0.244 OA
ATOM     17  C   UNL d   1     -31.908  21.446  23.618  0.00  0.00     0.154 A 
ATOM     18  N   UNL d   1     -30.628  21.506  23.802  0.00  0.00    -0.147 NA
BRANCH  15  19
ATOM     19  C   UNL d   1     -33.520  21.883  21.721  0.00  0.00     0.131 C 
ATOM     20  C   UNL d   1     -33.937  20.485  21.258  0.00  0.00     0.027 C 
ENDBRANCH  15  19
BRANCH  17  21
ATOM     21  C   UNL d   1     -32.925  21.036  24.652  0.00  0.00     0.244 C 
BRANCH  21  22
ATOM     22  O   UNL d   1     -32.277  20.861  25.914  0.00  0.00    -0.393 OA
ATOM     23  H   UNL d   1     -32.516  21.526  26.574  0.00  0.00     0.209 HD
ENDBRANCH  21  22
ENDBRANCH  17  21
ENDBRANCH  10  13
BRANCH   1  24
ATOM     24  C   UNL d   1     -26.371  24.724  24.984  0.00  0.00    -0.059 C 
ATOM     25  C   UNL d   1     -26.247  26.042  25.088  0.00  0.00     0.019 C 
ATOM     26  C   UNL d   1     -27.131  23.954  26.033  0.00  0.00     0.048 C 
ENDBRANCH   1  24
BRANCH   3  27
ATOM     27  C   UNL d   1     -22.479  23.715  22.298  0.00  0.00     0.048 A 
ATOM     28  C   UNL d   1     -22.051  24.473  21.216  0.00  0.00    -0.032 A 
ATOM     29  C   UNL d   1     -20.701  24.671  21.004  0.00  0.00     0.051 A 
ATOM     30  C   UNL d   1     -23.060  25.086  20.279  0.00  0.00     0.050 C 
ATOM     31  C   UNL d   1     -19.774  24.104  21.862  0.00  0.00     0.117 A 
ATOM     32  C   UNL d   1     -20.198  23.344  22.938  0.00  0.00     0.044 A 
ATOM     33  F   UNL d   1     -18.453  24.296  21.648  0.00  0.00    -0.206 F 
ATOM     34  C   UNL d   1     -21.547  23.148  23.157  0.00  0.00     0.034 A 
ENDBRANCH   3  27
TORSDOF 6
ENDMDL
