MODEL 1
REMARK VINA RESULT:     -10.2      0.000      0.000
REMARK  6 active torsions:
REMARK  status: ('A' for Active; 'I' for Inactive)
REMARK    1  A    between atoms: C_3  and  O_4 
REMARK    2  A    between atoms: O_4  and  C_5 
REMARK    3  A    between atoms: C_13  and  O_14 
REMARK    4  A    between atoms: O_14  and  C_15 
REMARK    5  A    between atoms: N_19  and  C_20 
REMARK    6  A    between atoms: C_23  and  C_24 
ROOT
ATOM      1  C   UNL d   1     -26.935  20.848  21.049  0.00  0.00     0.074 C 
ATOM      2  C   UNL d   1     -26.688  21.973  22.022  0.00  0.00     0.073 A 
ATOM      3  C   UNL d   1     -25.480  22.486  22.360  0.00  0.00     0.155 A 
ATOM      4  C   UNL d   1     -25.696  23.514  23.297  0.00  0.00     0.221 A 
ATOM      5  N   UNL d   1     -26.986  23.615  23.507  0.00  0.00    -0.137 NA
ATOM      6  N   UNL d   1     -27.638  22.660  22.715  0.00  0.00    -0.212 N 
ENDROOT
BRANCH   6   7
ATOM      7  C   UNL d   1     -29.017  22.447  22.654  0.00  0.00     0.190 A 
ATOM      8  C   UNL d   1     -29.715  22.101  23.807  0.00  0.00     0.164 A 
ATOM      9  C   UNL d   1     -31.083  21.892  23.730  0.00  0.00     0.055 A 
ATOM     10  F   UNL d   1     -29.067  21.970  24.985  0.00  0.00    -0.202 F 
ATOM     11  C   UNL d   1     -31.706  22.037  22.499  0.00  0.00    -0.033 A 
ATOM     12  C   UNL d   1     -30.950  22.382  21.395  0.00  0.00     0.126 A 
ATOM     13  N   UNL d   1     -29.649  22.570  21.497  0.00  0.00    -0.238 NA
BRANCH  11  14
ATOM     14  C   UNL d   1     -33.191  21.819  22.366  0.00  0.00     0.020 A 
ATOM     15  C   UNL d   1     -33.671  20.866  21.270  0.00  0.00     0.010 A 
ATOM     16  C   UNL d   1     -33.739  20.440  22.738  0.00  0.00     0.010 A 
ENDBRANCH  11  14
ENDBRANCH   6   7
BRANCH   3  17
ATOM     17  O   UNL d   1     -24.272  22.076  21.883  0.00  0.00    -0.298 OA
BRANCH  17  18
ATOM     18  C   UNL d   1     -23.362  23.030  21.547  0.00  0.00     0.153 A 
ATOM     19  C   UNL d   1     -22.286  23.291  22.385  0.00  0.00     0.153 A 
ATOM     20  C   UNL d   1     -21.362  24.261  22.041  0.00  0.00     0.045 A 
ATOM     21  F   UNL d   1     -22.141  22.598  23.536  0.00  0.00    -0.203 F 
ATOM     22  C   UNL d   1     -21.509  24.971  20.863  0.00  0.00     0.006 A 
ATOM     23  C   UNL d   1     -22.580  24.713  20.026  0.00  0.00     0.045 A 
ATOM     24  C   UNL d   1     -23.504  23.740  20.363  0.00  0.00     0.153 A 
ATOM     25  F   UNL d   1     -24.546  23.486  19.542  0.00  0.00    -0.203 F 
ENDBRANCH  17  18
ENDBRANCH   3  17
BRANCH   4  26
ATOM     26  O   UNL d   1     -24.732  24.273  23.884  0.00  0.00    -0.326 OA
BRANCH  26  27
ATOM     27  C   UNL d   1     -24.907  25.691  23.843  0.00  0.00     0.122 C 
ATOM     28  C   UNL d   1     -25.781  26.130  25.018  0.00  0.00     0.040 C 
ATOM     29  C   UNL d   1     -23.542  26.375  23.937  0.00  0.00     0.040 C 
ENDBRANCH  26  27
ENDBRANCH   4  26
TORSDOF 6
ENDMDL
