MODEL 1
REMARK VINA RESULT:     -11.9      0.000      0.000
REMARK  4 active torsions:
REMARK  status: ('A' for Active; 'I' for Inactive)
REMARK    1  A    between atoms: C_5  and  C_6 
REMARK    2  A    between atoms: C_9  and  C_10 
REMARK    3  A    between atoms: C_18  and  C_19 
REMARK    4  A    between atoms: C_19  and  O_21 
ROOT
ATOM      1  C   UNL d   1     -28.370  22.412  23.126  0.00  0.00     0.074 A 
ATOM      2  N   UNL d   1     -29.117  22.499  22.045  0.00  0.00    -0.245 NA
ATOM      3  C   UNL d   1     -30.413  22.193  22.051  0.00  0.00     0.086 A 
ATOM      4  C   UNL d   1     -31.205  22.287  20.890  0.00  0.00     0.148 A 
ATOM      5  N   UNL d   1     -32.478  21.976  20.940  0.00  0.00    -0.271 NA
ATOM      6  C   UNL d   1     -33.077  21.567  22.049  0.00  0.00     0.117 A 
ATOM      7  C   UNL d   1     -32.398  21.442  23.226  0.00  0.00     0.034 A 
ATOM      8  C   UNL d   1     -31.034  21.757  23.250  0.00  0.00     0.013 A 
ATOM      9  C   UNL d   1     -30.227  21.653  24.464  0.00  0.00     0.058 A 
ATOM     10  C   UNL d   1     -28.884  21.992  24.363  0.00  0.00    -0.015 A 
ATOM     11  C   UNL d   1     -27.986  21.910  25.571  0.00  0.00     0.052 C 
ENDROOT
BRANCH   1  12
ATOM     12  C   UNL d   1     -26.935  22.772  23.033  0.00  0.00    -0.007 A 
ATOM     13  C   UNL d   1     -26.065  21.980  22.284  0.00  0.00     0.014 A 
ATOM     14  C   UNL d   1     -24.731  22.315  22.199  0.00  0.00     0.013 A 
ATOM     15  C   UNL d   1     -24.252  23.445  22.860  0.00  0.00    -0.023 A 
ATOM     16  C   UNL d   1     -25.123  24.236  23.609  0.00  0.00     0.013 A 
ATOM     17  C   UNL d   1     -26.457  23.906  23.690  0.00  0.00     0.014 A 
BRANCH  15  18
ATOM     18  C   UNL d   1     -22.817  23.804  22.769  0.00  0.00     0.015 A 
ATOM     19  C   UNL d   1     -21.996  23.742  23.899  0.00  0.00     0.017 A 
ATOM     20  C   UNL d   1     -20.660  24.083  23.760  0.00  0.00     0.027 A 
ATOM     21  C   UNL d   1     -20.188  24.481  22.524  0.00  0.00     0.032 A 
ATOM     22  C   UNL d   1     -18.737  24.859  22.371  0.00  0.00     0.070 C 
ATOM     23  N   UNL d   1     -20.987  24.535  21.475  0.00  0.00    -0.241 NA
ATOM     24  C   UNL d   1     -22.264  24.216  21.556  0.00  0.00     0.137 A 
ATOM     25 CL   UNL d   1     -23.265  24.307  20.141  0.00  0.00    -0.061 Cl
ENDBRANCH  15  18
ENDBRANCH   1  12
BRANCH   9  26
ATOM     26  C   UNL d   1     -30.815  21.205  25.743  0.00  0.00     0.177 C 
ATOM     27  O   UNL d   1     -31.426  21.991  26.439  0.00  0.00    -0.646 OA
BRANCH  26  28
ATOM     28  O   UNL d   1     -30.671  19.925  26.139  0.00  0.00    -0.773 OA
ATOM     29  H   UNL d   1     -30.080  19.760  26.886  0.00  0.00     0.167 HD
ENDBRANCH  26  28
ENDBRANCH   9  26
TORSDOF 4
ENDMDL
