MODEL 1
REMARK VINA RESULT:      -9.7      0.000      0.000
REMARK  8 active torsions:
REMARK  status: ('A' for Active; 'I' for Inactive)
REMARK    1  A    between atoms: C_2  and  N_3 
REMARK    2  A    between atoms: C_4  and  S_5 
REMARK    3  A    between atoms: N_8  and  C_9 
REMARK    4  A    between atoms: C_11  and  O_12 
REMARK    5  A    between atoms: O_12  and  C_13 
REMARK    6  A    between atoms: C_13  and  C_15 
REMARK    7  A    between atoms: C_19  and  C_20 
REMARK       I    between atoms: C_20  and  N_22 
REMARK    8  A    between atoms: N_22  and  C_23 
ROOT
ATOM      1  C   UNL d   1     -26.749  23.348  23.636  0.00  0.00     0.105 A 
ATOM      2  C   UNL d   1     -25.861  22.865  22.683  0.00  0.00     0.073 A 
ATOM      3  C   UNL d   1     -24.601  23.425  22.562  0.00  0.00     0.087 A 
ATOM      4  C   UNL d   1     -24.220  24.475  23.412  0.00  0.00     0.068 A 
ATOM      5  C   UNL d   1     -25.119  24.952  24.373  0.00  0.00     0.064 A 
ATOM      6  C   UNL d   1     -26.373  24.392  24.481  0.00  0.00     0.146 A 
ATOM      7  F   UNL d   1     -27.238  24.854  25.409  0.00  0.00    -0.204 F 
ENDROOT
BRANCH   4   8
ATOM      8  C   UNL d   1     -22.880  25.072  23.294  0.00  0.00     0.259 C 
ATOM      9  O   UNL d   1     -22.724  26.095  22.653  0.00  0.00    -0.267 OA
ATOM     10  N   UNL d   1     -21.826  24.486  23.894  0.00  0.00    -0.318 N 
ATOM     11  H   UNL d   1     -21.957  23.699  24.445  0.00  0.00     0.169 HD
BRANCH  10  12
ATOM     12  C   UNL d   1     -20.539  25.014  23.724  0.00  0.00     0.113 A 
ATOM     13  C   UNL d   1     -19.725  24.551  22.697  0.00  0.00     0.146 A 
ATOM     14  C   UNL d   1     -18.456  25.075  22.533  0.00  0.00     0.045 A 
ATOM     15  F   UNL d   1     -20.173  23.590  21.861  0.00  0.00    -0.204 F 
ATOM     16  C   UNL d   1     -17.996  26.059  23.388  0.00  0.00     0.006 A 
ATOM     17  C   UNL d   1     -18.802  26.523  24.411  0.00  0.00     0.045 A 
ATOM     18  C   UNL d   1     -20.075  26.008  24.579  0.00  0.00     0.146 A 
ATOM     19  F   UNL d   1     -20.865  26.465  25.575  0.00  0.00    -0.204 F 
ENDBRANCH  10  12
ENDBRANCH   4   8
BRANCH   3  20
ATOM     20  O   UNL d   1     -23.735  22.957  21.629  0.00  0.00    -0.336 OA
BRANCH  20  21
ATOM     21  C   UNL d   1     -23.868  23.475  20.303  0.00  0.00     0.232 C 
ATOM     22  C   UNL d   1     -22.497  23.916  19.788  0.00  0.00     0.049 C 
BRANCH  21  23
ATOM     23  C   UNL d   1     -24.433  22.388  19.386  0.00  0.00     0.413 C 
ATOM     24  F   UNL d   1     -24.543  22.888  18.083  0.00  0.00    -0.168 F 
ATOM     25  F   UNL d   1     -23.575  21.283  19.390  0.00  0.00    -0.168 F 
ATOM     26  F   UNL d   1     -25.697  22.000  19.844  0.00  0.00    -0.168 F 
ENDBRANCH  21  23
ENDBRANCH  20  21
ENDBRANCH   3  20
BRANCH   1  27
ATOM     27  N   UNL d   1     -28.020  22.785  23.751  0.00  0.00    -0.177 N 
ATOM     28  N   UNL d   1     -29.079  22.936  22.845  0.00  0.00    -0.137 NA
ATOM     29  C   UNL d   1     -30.096  22.261  23.298  0.00  0.00     0.192 A 
ATOM     30  N   UNL d   1     -29.736  21.666  24.486  0.00  0.00    -0.276 N 
ATOM     31  C   UNL d   1     -28.458  21.999  24.757  0.00  0.00     0.352 A 
ATOM     32  O   UNL d   1     -27.815  21.654  25.731  0.00  0.00    -0.244 OA
BRANCH  29  33
ATOM     33  S   UNL d   1     -31.673  22.131  22.521  0.00  0.00    -0.095 SA
ATOM     34  C   UNL d   1     -31.172  22.195  20.783  0.00  0.00     0.099 C 
ENDBRANCH  29  33
BRANCH  30  35
ATOM     35  C   UNL d   1     -30.594  20.819  25.317  0.00  0.00     0.132 C 
ATOM     36  C   UNL d   1     -31.727  21.662  25.907  0.00  0.00     0.027 C 
ENDBRANCH  30  35
ENDBRANCH   1  27
TORSDOF 8
ENDMDL
