MODEL 1
REMARK VINA RESULT:     -10.5      0.000      0.000
REMARK  7 active torsions:
REMARK  status: ('A' for Active; 'I' for Inactive)
REMARK    1  A    between atoms: C_2  and  C_3 
REMARK    2  A    between atoms: C_3  and  O_4 
REMARK    3  A    between atoms: C_5  and  C_8 
REMARK       I    between atoms: C_8  and  N_10 
REMARK    4  A    between atoms: N_10  and  C_11 
REMARK    5  A    between atoms: C_14  and  C_15 
REMARK    6  A    between atoms: C_24  and  C_25 
REMARK    7  A    between atoms: C_25  and  O_27 
ROOT
ATOM      1  C   UNL d   1     -32.333  21.684  22.737  0.00  0.00     0.069 C 
ATOM      2  C   UNL d   1     -31.418  21.845  23.735  0.00  0.00     0.141 C 
ATOM      3  C   UNL d   1     -31.753  21.481  25.080  0.00  0.00     0.107 C 
ATOM      4  N   UNL d   1     -32.018  21.191  26.146  0.00  0.00    -0.191 NA
ENDROOT
BRANCH   2   5
ATOM      5  C   UNL d   1     -30.089  22.393  23.433  0.00  0.00     0.269 C 
ATOM      6  O   UNL d   1     -29.953  23.196  22.527  0.00  0.00    -0.266 OA
ATOM      7  N   UNL d   1     -29.020  22.008  24.157  0.00  0.00    -0.322 N 
ATOM      8  H   UNL d   1     -29.136  21.422  24.920  0.00  0.00     0.169 HD
BRANCH   7   9
ATOM      9  C   UNL d   1     -27.740  22.453  23.807  0.00  0.00     0.036 A 
ATOM     10  C   UNL d   1     -27.082  21.883  22.730  0.00  0.00     0.048 A 
ATOM     11  C   UNL d   1     -25.806  22.327  22.381  0.00  0.00     0.052 A 
ATOM     12  C   UNL d   1     -25.198  23.353  23.128  0.00  0.00    -0.009 A 
ATOM     13  C   UNL d   1     -25.873  23.911  24.212  0.00  0.00     0.015 A 
ATOM     14  C   UNL d   1     -27.135  23.468  24.543  0.00  0.00     0.030 A 
BRANCH  11  15
ATOM     15  C   UNL d   1     -25.098  21.724  21.236  0.00  0.00     0.293 C 
ATOM     16  O   UNL d   1     -24.223  20.903  21.426  0.00  0.00    -0.259 OA
BRANCH  15  17
ATOM     17  O   UNL d   1     -25.424  22.084  19.978  0.00  0.00    -0.322 OA
ATOM     18  C   UNL d   1     -24.327  22.320  19.056  0.00  0.00     0.213 C 
ENDBRANCH  15  17
ENDBRANCH  11  15
BRANCH  12  19
ATOM     19  C   UNL d   1     -23.845  23.833  22.768  0.00  0.00    -0.022 A 
ATOM     20  C   UNL d   1     -22.766  23.583  23.616  0.00  0.00     0.052 A 
ATOM     21  C   UNL d   1     -21.503  24.032  23.277  0.00  0.00     0.105 A 
ATOM     22  C   UNL d   1     -21.310  24.735  22.088  0.00  0.00     0.105 A 
ATOM     23  O   UNL d   1     -20.302  23.923  23.917  0.00  0.00    -0.323 OA
ATOM     24  C   UNL d   1     -22.384  24.983  21.245  0.00  0.00     0.040 A 
ATOM     25  O   UNL d   1     -19.988  25.059  21.983  0.00  0.00    -0.323 OA
ATOM     26  C   UNL d   1     -23.646  24.536  21.580  0.00  0.00     0.015 A 
ATOM     27  C   UNL d   1     -19.452  24.916  23.313  0.00  0.00     0.352 C 
ENDBRANCH  12  19
ENDBRANCH   7   9
ENDBRANCH   2   5
BRANCH   1  28
ATOM     28  C   UNL d   1     -33.697  21.122  23.049  0.00  0.00     0.061 C 
ATOM     29  C   UNL d   1     -34.134  20.189  21.917  0.00  0.00     0.012 C 
ENDBRANCH   1  28
BRANCH   1  30
ATOM     30  O   UNL d   1     -32.019  22.027  21.477  0.00  0.00    -0.363 OA
ATOM     31  H   UNL d   1     -32.754  22.209  20.875  0.00  0.00     0.217 HD
ENDBRANCH   1  30
TORSDOF 7
ENDMDL
