MODEL 1
REMARK VINA RESULT:     -11.2      0.000      0.000
REMARK  6 active torsions:
REMARK  status: ('A' for Active; 'I' for Inactive)
REMARK    1  A    between atoms: C_2  and  O_3 
REMARK    2  A    between atoms: C_2  and  C_31 
REMARK    3  A    between atoms: O_3  and  C_4 
REMARK    4  A    between atoms: C_6  and  N_7 
REMARK    5  A    between atoms: C_19  and  C_20 
REMARK       I    between atoms: C_20  and  N_22 
REMARK    6  A    between atoms: N_22  and  C_23 
ROOT
ATOM      1  C   UNL d   1     -24.786  23.461  22.908  0.00  0.00     0.087 A 
ATOM      2  C   UNL d   1     -26.037  22.879  23.018  0.00  0.00     0.069 A 
ATOM      3  C   UNL d   1     -26.981  23.426  23.878  0.00  0.00     0.066 A 
ATOM      4  C   UNL d   1     -26.677  24.563  24.623  0.00  0.00     0.033 A 
ATOM      5  C   UNL d   1     -25.447  25.149  24.517  0.00  0.00     0.022 A 
ATOM      6  C   UNL d   1     -24.484  24.608  23.659  0.00  0.00     0.065 A 
ENDROOT
BRANCH   6   7
ATOM      7  C   UNL d   1     -23.158  25.238  23.546  0.00  0.00     0.259 C 
ATOM      8  O   UNL d   1     -23.045  26.329  23.019  0.00  0.00    -0.267 OA
ATOM      9  N   UNL d   1     -22.069  24.607  24.026  0.00  0.00    -0.318 N 
ATOM     10  H   UNL d   1     -22.145  23.704  24.373  0.00  0.00     0.169 HD
BRANCH   9  11
ATOM     11  C   UNL d   1     -20.827  25.255  24.026  0.00  0.00     0.113 A 
ATOM     12  C   UNL d   1     -20.497  26.131  25.054  0.00  0.00     0.146 A 
ATOM     13  C   UNL d   1     -19.270  26.768  25.051  0.00  0.00     0.045 A 
ATOM     14  F   UNL d   1     -21.376  26.359  26.056  0.00  0.00    -0.204 F 
ATOM     15  C   UNL d   1     -18.371  26.536  24.028  0.00  0.00     0.006 A 
ATOM     16  C   UNL d   1     -18.694  25.666  23.003  0.00  0.00     0.045 A 
ATOM     17  C   UNL d   1     -19.917  25.020  23.002  0.00  0.00     0.146 A 
ATOM     18  F   UNL d   1     -20.230  24.164  22.004  0.00  0.00    -0.204 F 
ENDBRANCH   9  11
ENDBRANCH   6   7
BRANCH   1  19
ATOM     19  O   UNL d   1     -23.858  22.931  22.073  0.00  0.00    -0.336 OA
BRANCH  19  20
ATOM     20  C   UNL d   1     -24.000  23.218  20.680  0.00  0.00     0.232 C 
ATOM     21  C   UNL d   1     -22.638  23.604  20.098  0.00  0.00     0.049 C 
BRANCH  20  22
ATOM     22  C   UNL d   1     -24.532  21.980  19.955  0.00  0.00     0.413 C 
ATOM     23  F   UNL d   1     -23.897  21.857  18.714  0.00  0.00    -0.168 F 
ATOM     24  F   UNL d   1     -24.273  20.842  20.726  0.00  0.00    -0.168 F 
ATOM     25  F   UNL d   1     -25.912  22.109  19.762  0.00  0.00    -0.168 F 
ENDBRANCH  20  22
ENDBRANCH  19  20
ENDBRANCH   1  19
BRANCH   3  26
ATOM     26  N   UNL d   1     -28.241  22.836  23.992  0.00  0.00    -0.181 N 
ATOM     27  C   UNL d   1     -28.655  22.020  24.985  0.00  0.00     0.351 A 
ATOM     28  N   UNL d   1     -29.934  21.697  24.731  0.00  0.00    -0.284 N 
ATOM     29  O   UNL d   1     -27.992  21.646  25.935  0.00  0.00    -0.244 OA
ATOM     30  C   UNL d   1     -30.305  22.294  23.544  0.00  0.00     0.131 A 
ATOM     31  C   UNL d   1     -30.830  20.879  25.557  0.00  0.00     0.135 C 
ATOM     32  N   UNL d   1     -29.313  22.988  23.100  0.00  0.00    -0.149 NA
ATOM     33  C   UNL d   1     -31.664  22.119  22.905  0.00  0.00     0.081 C 
ATOM     34  C   UNL d   1     -32.631  21.604  23.980  0.00  0.00     0.009 C 
ATOM     35  C   UNL d   1     -31.998  20.401  24.688  0.00  0.00     0.021 C 
ENDBRANCH   3  26
TORSDOF 6
ENDMDL
