MODEL 1
REMARK VINA RESULT:     -10.7      0.000      0.000
REMARK  1 active torsions:
REMARK  status: ('A' for Active; 'I' for Inactive)
REMARK    1  A    between atoms: C_12  and  N_13 
ROOT
ATOM      1  C   UNL d   1     -27.734  21.745  27.461  0.00  0.00     0.095 C 
ATOM      2  C   UNL d   1     -28.894  21.722  26.499  0.00  0.00     0.148 A 
ATOM      3  N   UNL d   1     -30.146  21.493  26.805  0.00  0.00    -0.133 NA
ATOM      4  N   UNL d   1     -30.876  21.547  25.746  0.00  0.00    -0.127 NA
ATOM      5  C   UNL d   1     -30.114  21.816  24.705  0.00  0.00     0.185 A 
ATOM      6  C   UNL d   1     -30.377  21.994  23.273  0.00  0.00     0.027 A 
ATOM      7  C   UNL d   1     -31.660  21.887  22.738  0.00  0.00     0.016 A 
ATOM      8  C   UNL d   1     -31.849  22.063  21.385  0.00  0.00     0.001 A 
ATOM      9  C   UNL d   1     -30.775  22.348  20.551  0.00  0.00     0.001 A 
ATOM     10  C   UNL d   1     -29.500  22.456  21.058  0.00  0.00     0.016 A 
ATOM     11  C   UNL d   1     -29.284  22.281  22.425  0.00  0.00     0.020 A 
ATOM     12  C   UNL d   1     -27.943  22.385  23.015  0.00  0.00     0.138 A 
ATOM     13  N   UNL d   1     -27.773  22.216  24.298  0.00  0.00    -0.151 NA
ATOM     14  N   UNL d   1     -28.829  21.933  25.164  0.00  0.00    -0.196 N 
ENDROOT
BRANCH  12  15
ATOM     15  N   UNL d   1     -26.852  22.665  22.204  0.00  0.00    -0.261 NA
ATOM     16  C   UNL d   1     -25.757  23.252  22.982  0.00  0.00     0.136 C 
ATOM     17  C   UNL d   1     -24.545  23.461  22.111  0.00  0.00    -0.038 A 
ATOM     18  C   UNL d   1     -24.400  22.818  20.901  0.00  0.00    -0.050 A 
ATOM     19  C   UNL d   1     -23.555  24.326  22.555  0.00  0.00     0.009 A 
ATOM     20  C   UNL d   1     -25.454  21.878  20.373  0.00  0.00     0.054 C 
ATOM     21  C   UNL d   1     -23.264  23.036  20.135  0.00  0.00     0.007 A 
ATOM     22  C   UNL d   1     -26.391  21.456  21.504  0.00  0.00     0.102 C 
ATOM     23  C   UNL d   1     -22.280  23.896  20.579  0.00  0.00     0.001 A 
ATOM     24  C   UNL d   1     -22.426  24.543  21.791  0.00  0.00     0.001 A 
ENDBRANCH  12  15
TORSDOF 1
ENDMDL
