MODEL 1
REMARK VINA RESULT:      -9.9      0.000      0.000
REMARK  4 active torsions:
REMARK  status: ('A' for Active; 'I' for Inactive)
REMARK    1  A    between atoms: C_2  and  C_4 
REMARK    2  A    between atoms: C_4  and  C_7 
REMARK       I    between atoms: C_7  and  N_9 
REMARK    3  A    between atoms: N_9  and  C_10 
REMARK    4  A    between atoms: C_13  and  C_14 
ROOT
ATOM      1  C   UNL d   1     -21.347  23.887  21.746  0.00  0.00     0.253 C 
ATOM      2  C   UNL d   1     -21.665  24.685  20.550  0.00  0.00     0.081 C 
ATOM      3  N   UNL d   1     -21.910  25.301  19.627  0.00  0.00    -0.196 NA
ENDROOT
BRANCH   1   4
ATOM      4  C   UNL d   1     -20.595  24.740  22.733  0.00  0.00     0.149 C 
ATOM      5  C   UNL d   1     -21.231  25.989  23.289  0.00  0.00     0.093 C 
ATOM      6  O   UNL d   1     -19.482  24.425  23.079  0.00  0.00    -0.296 OA
ENDBRANCH   1   4
BRANCH   1   7
ATOM      7  C   UNL d   1     -22.626  23.398  22.376  0.00  0.00     0.247 C 
ATOM      8  O   UNL d   1     -22.591  22.795  23.428  0.00  0.00    -0.271 OA
ATOM      9  N   UNL d   1     -23.808  23.630  21.771  0.00  0.00    -0.324 N 
ATOM     10  H   UNL d   1     -23.831  24.053  20.898  0.00  0.00     0.169 HD
BRANCH   9  11
ATOM     11  C   UNL d   1     -25.000  23.259  22.401  0.00  0.00     0.056 A 
ATOM     12  C   UNL d   1     -25.560  24.086  23.369  0.00  0.00     0.061 A 
ATOM     13  C   UNL d   1     -26.736  23.723  23.991  0.00  0.00     0.038 A 
ATOM     14 CL   UNL d   1     -24.778  25.576  23.795  0.00  0.00    -0.082 Cl
ATOM     15  C   UNL d   1     -27.361  22.524  23.652  0.00  0.00    -0.022 A 
ATOM     16  C   UNL d   1     -26.801  21.699  22.678  0.00  0.00     0.014 A 
ATOM     17  C   UNL d   1     -25.625  22.066  22.059  0.00  0.00     0.032 A 
BRANCH  15  18
ATOM     18  C   UNL d   1     -28.623  22.128  24.325  0.00  0.00    -0.002 A 
ATOM     19  C   UNL d   1     -29.827  22.153  23.625  0.00  0.00     0.066 A 
ATOM     20  C   UNL d   1     -30.999  21.777  24.256  0.00  0.00     0.056 A 
ATOM     21 CL   UNL d   1     -29.856  22.650  21.961  0.00  0.00    -0.082 Cl
ATOM     22  C   UNL d   1     -30.977  21.387  25.583  0.00  0.00     0.026 A 
ATOM     23 CL   UNL d   1     -32.500  21.802  23.384  0.00  0.00    -0.083 Cl
ATOM     24  C   UNL d   1     -29.784  21.365  26.283  0.00  0.00     0.003 A 
ATOM     25  C   UNL d   1     -28.608  21.733  25.662  0.00  0.00     0.014 A 
ENDBRANCH  15  18
ENDBRANCH   9  11
ENDBRANCH   1   7
TORSDOF 4
ENDMDL
