MODEL 1
REMARK VINA RESULT:     -10.2      0.000      0.000
REMARK  8 active torsions:
REMARK  status: ('A' for Active; 'I' for Inactive)
REMARK    1  A    between atoms: C_2  and  O_3 
REMARK    2  A    between atoms: C_2  and  C_4 
REMARK    3  A    between atoms: N_6  and  C_7 
REMARK    4  A    between atoms: C_9  and  O_10 
REMARK    5  A    between atoms: O_10  and  C_11 
REMARK    6  A    between atoms: C_11  and  C_13 
REMARK    7  A    between atoms: C_17  and  C_18 
REMARK       I    between atoms: C_18  and  N_20 
REMARK    8  A    between atoms: N_20  and  C_21 
ROOT
ATOM      1  C   UNL d   1     -26.762  23.301  23.739  0.00  0.00     0.104 A 
ATOM      2  C   UNL d   1     -25.882  22.816  22.781  0.00  0.00     0.073 A 
ATOM      3  C   UNL d   1     -24.631  23.392  22.634  0.00  0.00     0.087 A 
ATOM      4  C   UNL d   1     -24.253  24.459  23.464  0.00  0.00     0.068 A 
ATOM      5  C   UNL d   1     -25.144  24.937  24.429  0.00  0.00     0.064 A 
ATOM      6  C   UNL d   1     -26.388  24.361  24.563  0.00  0.00     0.146 A 
ATOM      7  F   UNL d   1     -27.248  24.824  25.496  0.00  0.00    -0.204 F 
ENDROOT
BRANCH   4   8
ATOM      8  C   UNL d   1     -22.922  25.072  23.317  0.00  0.00     0.259 C 
ATOM      9  O   UNL d   1     -22.778  26.053  22.614  0.00  0.00    -0.267 OA
ATOM     10  N   UNL d   1     -21.862  24.543  23.963  0.00  0.00    -0.319 N 
ATOM     11  H   UNL d   1     -21.991  23.812  24.586  0.00  0.00     0.169 HD
BRANCH  10  12
ATOM     12  C   UNL d   1     -20.579  25.051  23.732  0.00  0.00     0.096 A 
ATOM     13  C   UNL d   1     -20.093  26.095  24.508  0.00  0.00     0.064 A 
ATOM     14  C   UNL d   1     -18.823  26.592  24.280  0.00  0.00     0.026 A 
ATOM     15 CL   UNL d   1     -21.077  26.773  25.767  0.00  0.00    -0.082 Cl
ATOM     16  C   UNL d   1     -18.040  26.057  23.273  0.00  0.00     0.005 A 
ATOM     17  C   UNL d   1     -18.522  25.022  22.494  0.00  0.00     0.045 A 
ATOM     18  C   UNL d   1     -19.789  24.516  22.720  0.00  0.00     0.144 A 
ATOM     19  F   UNL d   1     -20.259  23.505  21.958  0.00  0.00    -0.204 F 
ENDBRANCH  10  12
ENDBRANCH   4   8
BRANCH   3  20
ATOM     20  O   UNL d   1     -23.772  22.921  21.695  0.00  0.00    -0.336 OA
BRANCH  20  21
ATOM     21  C   UNL d   1     -23.916  23.433  20.369  0.00  0.00     0.232 C 
ATOM     22  C   UNL d   1     -22.551  23.884  19.845  0.00  0.00     0.049 C 
BRANCH  21  23
ATOM     23  C   UNL d   1     -24.477  22.339  19.458  0.00  0.00     0.413 C 
ATOM     24  F   UNL d   1     -25.744  21.960  19.910  0.00  0.00    -0.168 F 
ATOM     25  F   UNL d   1     -24.574  22.826  18.150  0.00  0.00    -0.168 F 
ATOM     26  F   UNL d   1     -23.622  21.232  19.481  0.00  0.00    -0.168 F 
ENDBRANCH  21  23
ENDBRANCH  20  21
ENDBRANCH   3  20
BRANCH   1  27
ATOM     27  N   UNL d   1     -28.025  22.720  23.880  0.00  0.00    -0.178 N 
ATOM     28  N   UNL d   1     -29.067  22.763  22.944  0.00  0.00    -0.146 NA
ATOM     29  C   UNL d   1     -30.076  22.117  23.436  0.00  0.00     0.159 A 
ATOM     30  N   UNL d   1     -29.731  21.634  24.675  0.00  0.00    -0.286 N 
ATOM     31  C   UNL d   1     -28.464  22.012  24.941  0.00  0.00     0.351 A 
ATOM     32  C   UNL d   1     -30.594  20.844  25.558  0.00  0.00     0.163 C 
ATOM     33  O   UNL d   1     -27.834  21.760  25.951  0.00  0.00    -0.244 OA
BRANCH  29  34
ATOM     34  C   UNL d   1     -31.406  21.919  22.757  0.00  0.00     0.185 C 
ATOM     35  C   UNL d   1     -31.266  22.219  21.263  0.00  0.00     0.048 C 
BRANCH  34  36
ATOM     36  O   UNL d   1     -32.370  22.803  23.332  0.00  0.00    -0.388 OA
ATOM     37  H   UNL d   1     -32.121  23.145  24.201  0.00  0.00     0.210 HD
ENDBRANCH  34  36
ENDBRANCH  29  34
ENDBRANCH   1  27
TORSDOF 8
ENDMDL
