MODEL 1
REMARK VINA RESULT:     -10.5      0.000      0.000
REMARK  7 active torsions:
REMARK  status: ('A' for Active; 'I' for Inactive)
REMARK    1  A    between atoms: O_2  and  C_3 
REMARK    2  A    between atoms: C_9  and  N_10 
REMARK       I    between atoms: N_10  and  C_11 
REMARK    3  A    between atoms: C_11  and  C_13 
REMARK    4  A    between atoms: C_17  and  N_18 
REMARK    5  A    between atoms: C_29  and  O_30 
REMARK    6  A    between atoms: O_30  and  C_31 
REMARK    7  A    between atoms: C_31  and  C_33 
ROOT
ATOM      1  C   UNL d   1     -24.198  24.570  23.645  0.00  0.00     0.068 A 
ATOM      2  C   UNL d   1     -25.107  25.092  24.572  0.00  0.00     0.064 A 
ATOM      3  C   UNL d   1     -26.361  24.535  24.694  0.00  0.00     0.146 A 
ATOM      4  F   UNL d   1     -27.240  25.044  25.583  0.00  0.00    -0.204 F 
ATOM      5  C   UNL d   1     -26.721  23.442  23.906  0.00  0.00     0.104 A 
ATOM      6  C   UNL d   1     -25.825  22.917  22.985  0.00  0.00     0.073 A 
ATOM      7  C   UNL d   1     -24.565  23.474  22.851  0.00  0.00     0.087 A 
ENDROOT
BRANCH   1   8
ATOM      8  C   UNL d   1     -22.859  25.167  23.507  0.00  0.00     0.259 C 
ATOM      9  N   UNL d   1     -21.828  24.687  24.231  0.00  0.00    -0.319 N 
ATOM     10  H   UNL d   1     -21.948  23.895  24.779  0.00  0.00     0.169 HD
ATOM     11  O   UNL d   1     -22.683  26.095  22.740  0.00  0.00    -0.267 OA
BRANCH   9  12
ATOM     12  C   UNL d   1     -20.585  25.329  24.190  0.00  0.00     0.094 A 
ATOM     13  C   UNL d   1     -19.593  24.898  23.309  0.00  0.00     0.191 A 
ATOM     14  N   UNL d   1     -18.421  25.509  23.266  0.00  0.00    -0.235 NA
ATOM     15  C   UNL d   1     -18.141  26.530  24.054  0.00  0.00     0.120 A 
ATOM     16  C   UNL d   1     -19.072  27.009  24.955  0.00  0.00     0.028 A 
ATOM     17  C   UNL d   1     -20.317  26.403  25.032  0.00  0.00    -0.029 A 
ATOM     18  C   UNL d   1     -21.357  26.898  26.004  0.00  0.00     0.050 C 
BRANCH  13  19
ATOM     19  O   UNL d   1     -19.836  23.848  22.485  0.00  0.00    -0.338 OA
ATOM     20  C   UNL d   1     -19.307  23.929  21.159  0.00  0.00     0.211 C 
ENDBRANCH  13  19
ENDBRANCH   9  12
ENDBRANCH   1   8
BRANCH   7  21
ATOM     21  O   UNL d   1     -23.688  22.963  21.950  0.00  0.00    -0.336 OA
BRANCH  21  22
ATOM     22  C   UNL d   1     -23.941  23.237  20.571  0.00  0.00     0.232 C 
ATOM     23  C   UNL d   1     -22.634  23.639  19.882  0.00  0.00     0.049 C 
BRANCH  22  24
ATOM     24  C   UNL d   1     -24.508  21.986  19.897  0.00  0.00     0.413 C 
ATOM     25  F   UNL d   1     -25.892  22.124  19.747  0.00  0.00    -0.168 F 
ATOM     26  F   UNL d   1     -23.917  21.824  18.640  0.00  0.00    -0.168 F 
ATOM     27  F   UNL d   1     -24.234  20.865  20.690  0.00  0.00    -0.168 F 
ENDBRANCH  22  24
ENDBRANCH  21  22
ENDBRANCH   7  21
BRANCH   5  28
ATOM     28  N   UNL d   1     -27.993  22.878  24.039  0.00  0.00    -0.178 N 
ATOM     29  C   UNL d   1     -28.415  22.090  25.052  0.00  0.00     0.351 A 
ATOM     30  N   UNL d   1     -29.702  21.787  24.814  0.00  0.00    -0.284 N 
ATOM     31  O   UNL d   1     -27.752  21.722  26.004  0.00  0.00    -0.244 OA
ATOM     32  C   UNL d   1     -30.069  22.364  23.614  0.00  0.00     0.131 A 
ATOM     33  C   UNL d   1     -30.606  21.003  25.662  0.00  0.00     0.135 C 
ATOM     34  N   UNL d   1     -29.063  23.022  23.145  0.00  0.00    -0.149 NA
ATOM     35  C   UNL d   1     -31.438  22.211  22.994  0.00  0.00     0.081 C 
ATOM     36  C   UNL d   1     -32.406  21.742  24.089  0.00  0.00     0.009 C 
ATOM     37  C   UNL d   1     -31.795  20.536  24.812  0.00  0.00     0.021 C 
ENDBRANCH   5  28
TORSDOF 7
ENDMDL
