MODEL 1
REMARK VINA RESULT:      -8.4      0.000      0.000
REMARK  9 active torsions:
REMARK  status: ('A' for Active; 'I' for Inactive)
REMARK    1  A    between atoms: C_2  and  C_3 
REMARK    2  A    between atoms: N_5  and  C_6 
REMARK    3  A    between atoms: C_8  and  O_9 
REMARK    4  A    between atoms: O_9  and  C_10 
REMARK    5  A    between atoms: C_10  and  C_12 
REMARK    6  A    between atoms: C_18  and  C_19 
REMARK       I    between atoms: C_19  and  N_21 
REMARK    7  A    between atoms: N_21  and  C_22 
REMARK    8  A    between atoms: C_26  and  C_27 
REMARK       I    between atoms: C_27  and  N_29 
REMARK    9  A    between atoms: N_29  and  C_30 
ROOT
ATOM      1  C   UNL d   1     -18.631  26.879  27.352  0.00  0.00     0.104 A 
ATOM      2  C   UNL d   1     -18.195  26.977  26.038  0.00  0.00     0.073 A 
ATOM      3  C   UNL d   1     -19.030  26.606  25.000  0.00  0.00     0.087 A 
ATOM      4  C   UNL d   1     -20.321  26.130  25.280  0.00  0.00     0.068 A 
ATOM      5  C   UNL d   1     -20.755  26.040  26.606  0.00  0.00     0.064 A 
ATOM      6  C   UNL d   1     -19.913  26.407  27.633  0.00  0.00     0.146 A 
ATOM      7  F   UNL d   1     -20.331  26.314  28.914  0.00  0.00    -0.204 F 
ENDROOT
BRANCH   4   8
ATOM      8  C   UNL d   1     -21.216  25.733  24.181  0.00  0.00     0.259 C 
ATOM      9  O   UNL d   1     -22.044  26.517  23.756  0.00  0.00    -0.267 OA
ATOM     10  N   UNL d   1     -21.118  24.501  23.643  0.00  0.00    -0.323 N 
ATOM     11  H   UNL d   1     -20.500  23.855  24.020  0.00  0.00     0.169 HD
BRANCH  10  12
ATOM     12  C   UNL d   1     -21.907  24.154  22.541  0.00  0.00     0.035 A 
ATOM     13  C   UNL d   1     -23.049  23.389  22.719  0.00  0.00     0.046 A 
ATOM     14  C   UNL d   1     -23.832  23.045  21.618  0.00  0.00     0.034 A 
ATOM     15  C   UNL d   1     -23.461  23.474  20.343  0.00  0.00     0.017 A 
ATOM     16  C   UNL d   1     -22.322  24.236  20.175  0.00  0.00     0.003 A 
ATOM     17  C   UNL d   1     -21.546  24.576  21.267  0.00  0.00     0.029 A 
BRANCH  14  18
ATOM     18  C   UNL d   1     -25.052  22.231  21.801  0.00  0.00     0.252 C 
ATOM     19  O   UNL d   1     -25.169  21.171  21.217  0.00  0.00    -0.268 OA
ATOM     20  N   UNL d   1     -26.037  22.663  22.614  0.00  0.00    -0.352 N 
ATOM     21  H   UNL d   1     -25.945  23.509  23.079  0.00  0.00     0.163 HD
BRANCH  20  22
ATOM     22  C   UNL d   1     -27.247  21.856  22.794  0.00  0.00     0.084 A 
ATOM     23  C   UNL d   1     -28.105  22.137  24.028  0.00  0.00     0.027 A 
ATOM     24  C   UNL d   1     -28.595  22.562  22.643  0.00  0.00     0.027 A 
ENDBRANCH  20  22
ENDBRANCH  14  18
ENDBRANCH  10  12
ENDBRANCH   4   8
BRANCH   3  25
ATOM     25  O   UNL d   1     -18.604  26.700  23.715  0.00  0.00    -0.341 OA
BRANCH  25  26
ATOM     26  C   UNL d   1     -17.494  25.883  23.340  0.00  0.00     0.158 C 
ATOM     27  C   UNL d   1     -17.944  24.855  22.301  0.00  0.00     0.045 C 
BRANCH  26  28
ATOM     28  C   UNL d   1     -16.410  26.751  22.751  0.00  0.00    -0.029 A 
ATOM     29  C   UNL d   1     -16.445  28.121  22.934  0.00  0.00     0.010 A 
ATOM     30  C   UNL d   1     -15.451  28.916  22.395  0.00  0.00     0.001 A 
ATOM     31  C   UNL d   1     -14.421  28.341  21.674  0.00  0.00     0.000 A 
ATOM     32  C   UNL d   1     -14.386  26.971  21.491  0.00  0.00     0.001 A 
ATOM     33  C   UNL d   1     -15.377  26.175  22.034  0.00  0.00     0.010 A 
ENDBRANCH  26  28
ENDBRANCH  25  26
ENDBRANCH   3  25
BRANCH   1  34
ATOM     34  N   UNL d   1     -17.784  27.254  28.398  0.00  0.00    -0.178 N 
ATOM     35  N   UNL d   1     -16.908  26.415  29.098  0.00  0.00    -0.149 NA
ATOM     36  C   UNL d   1     -16.296  27.125  29.991  0.00  0.00     0.130 A 
ATOM     37  N   UNL d   1     -16.742  28.422  29.906  0.00  0.00    -0.289 N 
ATOM     38  C   UNL d   1     -17.655  28.493  28.917  0.00  0.00     0.351 A 
ATOM     39  C   UNL d   1     -16.295  29.538  30.744  0.00  0.00     0.162 C 
ATOM     40  O   UNL d   1     -18.254  29.491  28.560  0.00  0.00    -0.244 OA
BRANCH  36  41
ATOM     41  C   UNL d   1     -15.265  26.613  30.963  0.00  0.00     0.076 C 
ATOM     42  C   UNL d   1     -14.973  25.140  30.669  0.00  0.00     0.013 C 
ENDBRANCH  36  41
ENDBRANCH   1  34
TORSDOF 9
ENDMDL
