MODEL 1
REMARK VINA RESULT:      -9.4      0.000      0.000
REMARK  7 active torsions:
REMARK  status: ('A' for Active; 'I' for Inactive)
REMARK    1  A    between atoms: C_8  and  N_9 
REMARK       I    between atoms: N_9  and  C_10 
REMARK    2  A    between atoms: C_10  and  C_12 
REMARK    3  A    between atoms: C_16  and  N_17 
REMARK    4  A    between atoms: C_28  and  O_29 
REMARK    5  A    between atoms: O_29  and  C_30 
REMARK    6  A    between atoms: C_30  and  C_32 
REMARK    7  A    between atoms: C_32  and  N_33 
ROOT
ATOM      1  C   UNL d   1     -25.638  22.568  22.291  0.00  0.00     0.068 A 
ATOM      2  C   UNL d   1     -26.237  21.649  21.421  0.00  0.00     0.064 A 
ATOM      3  C   UNL d   1     -27.604  21.492  21.421  0.00  0.00     0.146 A 
ATOM      4  F   UNL d   1     -28.180  20.601  20.585  0.00  0.00    -0.204 F 
ATOM      5  C   UNL d   1     -28.397  22.255  22.278  0.00  0.00     0.104 A 
ATOM      6  C   UNL d   1     -27.812  23.172  23.141  0.00  0.00     0.073 A 
ATOM      7  C   UNL d   1     -26.437  23.333  23.153  0.00  0.00     0.087 A 
ENDROOT
BRANCH   1   8
ATOM      8  C   UNL d   1     -24.175  22.734  22.297  0.00  0.00     0.259 C 
ATOM      9  N   UNL d   1     -23.637  23.969  22.314  0.00  0.00    -0.320 N 
ATOM     10  H   UNL d   1     -24.210  24.747  22.405  0.00  0.00     0.169 HD
ATOM     11  O   UNL d   1     -23.452  21.756  22.286  0.00  0.00    -0.267 OA
BRANCH   9  12
ATOM     12  C   UNL d   1     -22.251  24.131  22.201  0.00  0.00     0.080 A 
ATOM     13  C   UNL d   1     -21.671  24.302  20.952  0.00  0.00    -0.032 A 
ATOM     14  C   UNL d   1     -22.531  24.314  19.715  0.00  0.00     0.050 C 
ATOM     15  C   UNL d   1     -20.303  24.467  20.844  0.00  0.00     0.009 A 
ATOM     16  C   UNL d   1     -19.511  24.452  21.976  0.00  0.00     0.004 A 
ATOM     17  C   UNL d   1     -20.084  24.282  23.223  0.00  0.00     0.045 A 
ATOM     18  C   UNL d   1     -21.453  24.121  23.340  0.00  0.00     0.143 A 
ATOM     19  F   UNL d   1     -22.013  23.955  24.557  0.00  0.00    -0.204 F 
ENDBRANCH   9  12
ENDBRANCH   1   8
BRANCH   7  20
ATOM     20  O   UNL d   1     -25.864  24.229  23.995  0.00  0.00    -0.343 OA
BRANCH  20  21
ATOM     21  C   UNL d   1     -26.208  24.130  25.379  0.00  0.00     0.153 C 
ATOM     22  C   UNL d   1     -26.761  25.473  25.863  0.00  0.00     0.042 C 
BRANCH  21  23
ATOM     23  C   UNL d   1     -27.271  23.046  25.564  0.00  0.00     0.303 C 
BRANCH  23  24
ATOM     24  N   UNL d   1     -27.283  22.606  26.965  0.00  0.00     0.082 N 
ATOM     25  C   UNL d   1     -28.627  22.734  27.546  0.00  0.00     0.309 C 
ATOM     26  C   UNL d   1     -26.786  21.229  27.090  0.00  0.00     0.309 C 
ENDBRANCH  23  24
ENDBRANCH  21  23
ENDBRANCH  20  21
ENDBRANCH   7  20
BRANCH   5  27
ATOM     27  N   UNL d   1     -29.785  22.096  22.270  0.00  0.00    -0.178 N 
ATOM     28  C   UNL d   1     -30.559  21.771  23.330  0.00  0.00     0.351 A 
ATOM     29  N   UNL d   1     -31.831  21.746  22.902  0.00  0.00    -0.284 N 
ATOM     30  O   UNL d   1     -30.174  21.544  24.462  0.00  0.00    -0.244 OA
ATOM     31  C   UNL d   1     -31.842  22.024  21.551  0.00  0.00     0.131 A 
ATOM     32  C   UNL d   1     -33.037  21.499  23.702  0.00  0.00     0.135 C 
ATOM     33  N   UNL d   1     -30.633  22.249  21.164  0.00  0.00    -0.149 NA
ATOM     34  C   UNL d   1     -33.095  22.035  20.706  0.00  0.00     0.081 C 
ATOM     35  C   UNL d   1     -34.301  22.162  21.647  0.00  0.00     0.009 C 
ATOM     36  C   UNL d   1     -34.181  21.113  22.757  0.00  0.00     0.021 C 
ENDBRANCH   5  27
TORSDOF 7
ENDMDL
