MODEL 1
REMARK VINA RESULT:     -12.8      0.000      0.000
REMARK  4 active torsions:
REMARK  status: ('A' for Active; 'I' for Inactive)
REMARK    1  A    between atoms: C_4  and  C_5 
REMARK    2  A    between atoms: C_5  and  O_7 
REMARK    3  A    between atoms: C_10  and  C_11 
REMARK    4  A    between atoms: C_16  and  C_17 
ROOT
ATOM      1  C   UNL d   1     -26.830  22.725  22.873  0.00  0.00     0.093 A 
ATOM      2  C   UNL d   1     -26.090  21.963  21.962  0.00  0.00     0.173 A 
ATOM      3  F   UNL d   1     -26.681  20.951  21.291  0.00  0.00    -0.202 F 
ATOM      4  C   UNL d   1     -24.756  22.250  21.746  0.00  0.00     0.170 A 
ATOM      5  F   UNL d   1     -24.044  21.519  20.862  0.00  0.00    -0.202 F 
ATOM      6  C   UNL d   1     -24.144  23.294  22.444  0.00  0.00     0.058 A 
ATOM      7  C   UNL d   1     -24.880  24.051  23.358  0.00  0.00     0.170 A 
ATOM      8  F   UNL d   1     -24.285  25.059  24.032  0.00  0.00    -0.202 F 
ATOM      9  C   UNL d   1     -26.215  23.770  23.572  0.00  0.00     0.173 A 
ATOM     10  F   UNL d   1     -26.927  24.503  24.456  0.00  0.00    -0.202 F 
ENDROOT
BRANCH   1  11
ATOM     11  C   UNL d   1     -28.257  22.424  23.101  0.00  0.00     0.145 A 
ATOM     12  N   UNL d   1     -28.758  21.927  24.209  0.00  0.00    -0.227 NA
ATOM     13  C   UNL d   1     -30.087  21.776  24.081  0.00  0.00     0.102 A 
ATOM     14  C   UNL d   1     -31.097  21.296  24.944  0.00  0.00     0.069 A 
ATOM     15  C   UNL d   1     -30.435  22.209  22.788  0.00  0.00     0.064 A 
ATOM     16  C   UNL d   1     -32.419  21.265  24.502  0.00  0.00     0.027 A 
ATOM     17  C   UNL d   1     -32.740  21.700  23.230  0.00  0.00    -0.059 A 
ATOM     18  C   UNL d   1     -34.174  21.659  22.768  0.00  0.00     0.048 C 
ATOM     19  C   UNL d   1     -31.759  22.171  22.377  0.00  0.00     0.038 A 
ATOM     20  N   UNL d   1     -29.258  22.619  22.190  0.00  0.00    -0.338 N 
ATOM     21  H   UNL d   1     -29.161  22.974  21.293  0.00  0.00     0.167 HD
BRANCH  14  22
ATOM     22  C   UNL d   1     -30.757  20.832  26.299  0.00  0.00     0.178 C 
ATOM     23  O   UNL d   1     -31.164  19.757  26.693  0.00  0.00    -0.646 OA
BRANCH  22  24
ATOM     24  O   UNL d   1     -29.992  21.600  27.101  0.00  0.00    -0.773 OA
ATOM     25  H   UNL d   1     -29.397  21.140  27.711  0.00  0.00     0.167 HD
ENDBRANCH  22  24
ENDBRANCH  14  22
ENDBRANCH   1  11
BRANCH   6  26
ATOM     26  C   UNL d   1     -22.711  23.596  22.215  0.00  0.00    -0.019 A 
ATOM     27  C   UNL d   1     -21.767  23.293  23.195  0.00  0.00     0.015 A 
ATOM     28  C   UNL d   1     -20.435  23.576  22.977  0.00  0.00     0.043 A 
ATOM     29  C   UNL d   1     -20.034  24.162  21.787  0.00  0.00     0.116 A 
ATOM     30  C   UNL d   1     -20.969  24.466  20.810  0.00  0.00     0.043 A 
ATOM     31  F   UNL d   1     -18.728  24.439  21.577  0.00  0.00    -0.206 F 
ATOM     32  C   UNL d   1     -22.303  24.180  21.017  0.00  0.00     0.015 A 
ENDBRANCH   6  26
TORSDOF 4
ENDMDL
