MODEL 1
REMARK VINA RESULT:     -12.4      0.000      0.000
REMARK  4 active torsions:
REMARK  status: ('A' for Active; 'I' for Inactive)
REMARK    1  A    between atoms: C_3  and  C_4 
REMARK    2  A    between atoms: C_7  and  C_8 
REMARK    3  A    between atoms: C_25  and  C_26 
REMARK       I    between atoms: C_26  and  N_28 
REMARK    4  A    between atoms: N_28  and  O_29 
ROOT
ATOM      1  C   UNL d   1     -29.818  23.011  21.259  0.00  0.00     0.052 C 
ATOM      2  C   UNL d   1     -30.200  22.253  22.504  0.00  0.00    -0.016 A 
ATOM      3  C   UNL d   1     -29.220  21.898  23.445  0.00  0.00     0.074 A 
ATOM      4  N   UNL d   1     -29.509  21.241  24.549  0.00  0.00    -0.247 NA
ATOM      5  C   UNL d   1     -30.753  20.864  24.849  0.00  0.00     0.069 A 
ATOM      6  C   UNL d   1     -31.032  20.163  26.037  0.00  0.00     0.035 A 
ATOM      7  C   UNL d   1     -32.310  19.791  26.317  0.00  0.00     0.044 A 
ATOM      8  C   UNL d   1     -33.356  20.093  25.444  0.00  0.00     0.117 A 
ATOM      9  F   UNL d   1     -34.615  19.708  25.751  0.00  0.00    -0.206 F 
ATOM     10  C   UNL d   1     -33.122  20.771  24.281  0.00  0.00     0.057 A 
ATOM     11  C   UNL d   1     -31.819  21.167  23.964  0.00  0.00     0.012 A 
ATOM     12  C   UNL d   1     -31.521  21.895  22.730  0.00  0.00     0.054 A 
ENDROOT
BRANCH   3  13
ATOM     13  C   UNL d   1     -27.811  22.280  23.189  0.00  0.00    -0.007 A 
ATOM     14  C   UNL d   1     -27.234  23.335  23.898  0.00  0.00     0.014 A 
ATOM     15  C   UNL d   1     -25.923  23.686  23.664  0.00  0.00     0.013 A 
ATOM     16  C   UNL d   1     -25.176  22.995  22.710  0.00  0.00    -0.023 A 
ATOM     17  C   UNL d   1     -25.752  21.942  22.001  0.00  0.00     0.013 A 
ATOM     18  C   UNL d   1     -27.061  21.586  22.239  0.00  0.00     0.014 A 
BRANCH  16  19
ATOM     19  C   UNL d   1     -23.766  23.377  22.454  0.00  0.00     0.013 A 
ATOM     20  C   UNL d   1     -23.360  23.736  21.168  0.00  0.00     0.127 A 
ATOM     21  C   UNL d   1     -22.043  24.086  20.935  0.00  0.00     0.043 A 
ATOM     22  F   UNL d   1     -24.251  23.737  20.152  0.00  0.00    -0.205 F 
ATOM     23  C   UNL d   1     -21.133  24.090  21.976  0.00  0.00     0.003 A 
ATOM     24  C   UNL d   1     -21.531  23.735  23.252  0.00  0.00     0.001 A 
ATOM     25  C   UNL d   1     -22.841  23.379  23.496  0.00  0.00     0.015 A 
ENDBRANCH  16  19
ENDBRANCH   3  13
BRANCH  12  26
ATOM     26  C   UNL d   1     -32.587  22.243  21.766  0.00  0.00     0.276 C 
ATOM     27  O   UNL d   1     -32.448  21.983  20.586  0.00  0.00    -0.265 OA
ATOM     28  N   UNL d   1     -33.713  22.846  22.195  0.00  0.00    -0.233 N 
ATOM     29  H   UNL d   1     -33.824  23.053  23.136  0.00  0.00     0.197 HD
BRANCH  28  30
ATOM     30  O   UNL d   1     -34.735  23.178  21.272  0.00  0.00    -0.287 OA
ATOM     31  H   UNL d   1     -34.560  22.883  20.368  0.00  0.00     0.244 HD
ENDBRANCH  28  30
ENDBRANCH  12  26
TORSDOF 4
ENDMDL
