MODEL 1
REMARK VINA RESULT:     -10.6      0.000      0.000
REMARK  6 active torsions:
REMARK  status: ('A' for Active; 'I' for Inactive)
REMARK       I    between atoms: N_2  and  C_3 
REMARK    1  A    between atoms: C_3  and  C_5 
REMARK    2  A    between atoms: C_10  and  C_11 
REMARK    3  A    between atoms: C_11  and  C_12 
REMARK    4  A    between atoms: C_12  and  C_13 
REMARK    5  A    between atoms: CA_14  and  C_15 
REMARK    6  A    between atoms: C_15  and  OXT_17 
ROOT
ATOM      1  C   UNL d   1     -30.260  22.070  22.188  0.00  0.00     0.043 C 
ENDROOT
BRANCH   1   2
ATOM      2  C   UNL d   1     -28.758  22.158  22.128  0.00  0.00    -0.057 A 
ATOM      3  C   UNL d   1     -28.098  22.969  23.001  0.00  0.00     0.019 A 
ATOM      4  C   UNL d   1     -26.696  23.054  22.949  0.00  0.00    -0.025 A 
ATOM      5  C   UNL d   1     -25.986  23.878  23.841  0.00  0.00     0.013 A 
ATOM      6  C   UNL d   1     -25.991  22.292  21.984  0.00  0.00    -0.025 A 
ATOM      7  C   UNL d   1     -24.633  23.948  23.770  0.00  0.00     0.018 A 
ATOM      8  C   UNL d   1     -23.922  23.197  22.817  0.00  0.00     0.032 A 
ATOM      9  C   UNL d   1     -24.591  22.374  21.929  0.00  0.00     0.029 A 
ATOM     10  C   UNL d   1     -26.707  21.466  21.098  0.00  0.00     0.013 A 
ATOM     11  C   UNL d   1     -28.064  21.410  21.179  0.00  0.00     0.008 A 
BRANCH   8  12
ATOM     12  C   UNL d   1     -22.447  23.288  22.764  0.00  0.00     0.251 C 
ATOM     13  N   UNL d   1     -21.849  23.949  21.754  0.00  0.00    -0.361 N 
ATOM     14  C   UNL d   1     -20.388  24.040  21.700  0.00  0.00     0.149 C 
ATOM     15  H   UNL d   1     -22.386  24.366  21.061  0.00  0.00     0.162 HD
ATOM     16  O   UNL d   1     -21.774  22.767  23.632  0.00  0.00    -0.268 OA
ENDBRANCH   8  12
ENDBRANCH   1   2
BRANCH   1  17
ATOM     17  C   UNL d   1     -30.749  22.615  23.532  0.00  0.00     0.051 C 
BRANCH  17  18
ATOM     18  C   UNL d   1     -31.096  21.466  24.444  0.00  0.00     0.044 A 
ATOM     19  C   UNL d   1     -30.168  21.037  25.498  0.00  0.00     0.258 A 
ATOM     20  N   UNL d   1     -30.520  20.006  26.294  0.00  0.00    -0.275 N 
ATOM     21  O   UNL d   1     -29.103  21.604  25.654  0.00  0.00    -0.267 OA
ATOM     22  C   UNL d   1     -31.694  19.378  26.115  0.00  0.00     0.327 A 
ATOM     23  H   UNL d   1     -29.919  19.713  26.998  0.00  0.00     0.173 HD
ATOM     24  N   UNL d   1     -32.556  19.749  25.154  0.00  0.00    -0.302 N 
ATOM     25  O   UNL d   1     -31.986  18.449  26.844  0.00  0.00    -0.247 OA
ATOM     26  CA  UNL d   1     -32.270  20.797  24.304  0.00  0.00     0.122 A 
ATOM     27  H   UNL d   1     -33.395  19.272  25.055  0.00  0.00     0.171 HD
BRANCH  26  28
ATOM     28  C   UNL d   1     -33.235  21.191  23.251  0.00  0.00     0.194 C 
ATOM     29  O   UNL d   1     -33.529  20.407  22.373  0.00  0.00    -0.645 OA
BRANCH  28  30
ATOM     30  OXT UNL d   1     -33.785  22.421  23.270  0.00  0.00    -0.772 OA
ATOM     31  HXT UNL d   1     -34.735  22.473  23.442  0.00  0.00     0.167 HD
ENDBRANCH  28  30
ENDBRANCH  26  28
ENDBRANCH  17  18
ENDBRANCH   1  17
TORSDOF 6
ENDMDL
