MODEL 1
REMARK VINA RESULT:     -10.0      0.000      0.000
REMARK  10 active torsions:
REMARK  status: ('A' for Active; 'I' for Inactive)
REMARK    1  A    between atoms: C_2  and  C_4 
REMARK    2  A    between atoms: C_4  and  C_5 
REMARK    3  A    between atoms: C_5  and  O_7 
REMARK    4  A    between atoms: O_7  and  C_8 
REMARK    5  A    between atoms: C_10  and  N_11 
REMARK    6  A    between atoms: C_13  and  C_14 
REMARK    7  A    between atoms: C_24  and  C_25 
REMARK       I    between atoms: C_25  and  N_27 
REMARK    8  A    between atoms: N_27  and  C_28 
REMARK    9  A    between atoms: C_28  and  C_30 
REMARK   10  A    between atoms: C_30  and  N_31 
ROOT
ATOM      1  C   UNL d   1     -29.169  21.825  23.645  0.00  0.00     0.087 A 
ATOM      2  C   UNL d   1     -28.017  22.295  23.038  0.00  0.00     0.073 A 
ATOM      3  C   UNL d   1     -26.948  22.722  23.813  0.00  0.00     0.104 A 
ATOM      4  C   UNL d   1     -27.031  22.688  25.206  0.00  0.00     0.146 A 
ATOM      5  F   UNL d   1     -25.987  23.104  25.954  0.00  0.00    -0.204 F 
ATOM      6  C   UNL d   1     -28.175  22.228  25.819  0.00  0.00     0.064 A 
ATOM      7  C   UNL d   1     -29.257  21.795  25.045  0.00  0.00     0.068 A 
ENDROOT
BRANCH   3   8
ATOM      8  N   UNL d   1     -25.785  23.190  23.198  0.00  0.00    -0.178 N 
ATOM      9  C   UNL d   1     -25.143  22.615  22.160  0.00  0.00     0.351 A 
ATOM     10  N   UNL d   1     -24.073  23.383  21.872  0.00  0.00    -0.288 N 
ATOM     11  O   UNL d   1     -25.472  21.592  21.586  0.00  0.00    -0.244 OA
ATOM     12  C   UNL d   1     -24.051  24.439  22.749  0.00  0.00     0.134 A 
ATOM     13  C   UNL d   1     -23.097  23.131  20.808  0.00  0.00     0.162 C 
ATOM     14  N   UNL d   1     -25.065  24.341  23.548  0.00  0.00    -0.149 NA
BRANCH  12  15
ATOM     15  C   UNL d   1     -23.015  25.534  22.778  0.00  0.00     0.049 C 
ATOM     16  C   UNL d   1     -23.634  26.806  23.363  0.00  0.00     0.018 C 
ATOM     17  C   UNL d   1     -21.834  25.096  23.645  0.00  0.00     0.018 C 
ENDBRANCH  12  15
ENDBRANCH   3   8
BRANCH   1  18
ATOM     18  O   UNL d   1     -30.213  21.401  22.889  0.00  0.00    -0.345 OA
BRANCH  18  19
ATOM     19  C   UNL d   1     -31.024  22.407  22.281  0.00  0.00     0.125 C 
ATOM     20  C   UNL d   1     -30.910  22.305  20.758  0.00  0.00     0.040 C 
BRANCH  19  21
ATOM     21  C   UNL d   1     -32.483  22.207  22.697  0.00  0.00     0.035 C 
BRANCH  21  22
ATOM     22  C   UNL d   1     -33.320  21.848  21.467  0.00  0.00    -0.020 C 
ATOM     23  C   UNL d   1     -33.724  20.374  21.538  0.00  0.00     0.009 C 
ATOM     24  C   UNL d   1     -34.577  22.720  21.434  0.00  0.00     0.009 C 
ENDBRANCH  21  22
ENDBRANCH  19  21
ENDBRANCH  18  19
ENDBRANCH   1  18
BRANCH   7  25
ATOM     25  C   UNL d   1     -30.483  21.302  25.697  0.00  0.00     0.254 C 
ATOM     26  O   UNL d   1     -31.072  22.005  26.495  0.00  0.00    -0.268 OA
ATOM     27  N   UNL d   1     -30.951  20.071  25.410  0.00  0.00    -0.351 N 
ATOM     28  H   UNL d   1     -30.480  19.510  24.773  0.00  0.00     0.163 HD
BRANCH  27  29
ATOM     29  C   UNL d   1     -32.169  19.580  26.059  0.00  0.00     0.108 C 
ATOM     30  C   UNL d   1     -33.353  19.733  25.103  0.00  0.00     0.034 C 
BRANCH  29  31
ATOM     31  C   UNL d   1     -31.994  18.104  26.422  0.00  0.00     0.291 C 
BRANCH  31  32
ATOM     32  N   UNL d   1     -30.563  17.793  26.532  0.00  0.00     0.080 N 
ATOM     33  H   UNL d   1     -30.391  16.815  26.356  0.00  0.00     0.312 HD
ATOM     34  H   UNL d   1     -30.018  18.374  25.912  0.00  0.00     0.312 HD
ENDBRANCH  31  32
ENDBRANCH  29  31
ENDBRANCH  27  29
ENDBRANCH   7  25
TORSDOF 10
ENDMDL
