MODEL 1
REMARK VINA RESULT:      -9.3      0.000      0.000
REMARK  9 active torsions:
REMARK  status: ('A' for Active; 'I' for Inactive)
REMARK    1  A    between atoms: C_2  and  N_3 
REMARK    2  A    between atoms: C_4  and  C_5 
REMARK    3  A    between atoms: C_5  and  O_6 
REMARK    4  A    between atoms: N_8  and  C_9 
REMARK    5  A    between atoms: C_11  and  O_12 
REMARK    6  A    between atoms: O_12  and  C_13 
REMARK    7  A    between atoms: C_13  and  C_15 
REMARK    8  A    between atoms: C_19  and  C_20 
REMARK       I    between atoms: C_20  and  N_22 
REMARK    9  A    between atoms: N_22  and  C_23 
ROOT
ATOM      1  C   UNL d   1     -26.659  23.384  23.610  0.00  0.00     0.197 A 
ATOM      2  N   UNL d   1     -25.799  22.915  22.719  0.00  0.00    -0.201 NA
ATOM      3  C   UNL d   1     -24.586  23.423  22.588  0.00  0.00     0.183 A 
ATOM      4  C   UNL d   1     -24.164  24.480  23.410  0.00  0.00     0.088 A 
ATOM      5  C   UNL d   1     -25.052  24.992  24.367  0.00  0.00     0.068 A 
ATOM      6  C   UNL d   1     -26.311  24.433  24.460  0.00  0.00     0.165 A 
ATOM      7  F   UNL d   1     -27.197  24.897  25.369  0.00  0.00    -0.202 F 
ENDROOT
BRANCH   1   8
ATOM      8  N   UNL d   1     -27.927  22.818  23.703  0.00  0.00    -0.159 N 
ATOM      9  N   UNL d   1     -28.965  22.950  22.771  0.00  0.00    -0.145 NA
ATOM     10  C   UNL d   1     -29.983  22.278  23.205  0.00  0.00     0.154 A 
ATOM     11  N   UNL d   1     -29.656  21.705  24.410  0.00  0.00    -0.283 N 
ATOM     12  C   UNL d   1     -28.385  22.042  24.707  0.00  0.00     0.352 A 
ATOM     13  O   UNL d   1     -27.764  21.706  25.699  0.00  0.00    -0.244 OA
BRANCH  10  14
ATOM     14  C   UNL d   1     -31.312  22.148  22.504  0.00  0.00     0.244 C 
BRANCH  14  15
ATOM     15  O   UNL d   1     -31.127  22.320  21.098  0.00  0.00    -0.393 OA
ATOM     16  H   UNL d   1     -31.840  22.807  20.663  0.00  0.00     0.209 HD
ENDBRANCH  14  15
ENDBRANCH  10  14
BRANCH  11  17
ATOM     17  C   UNL d   1     -30.536  20.867  25.228  0.00  0.00     0.131 C 
ATOM     18  C   UNL d   1     -31.624  21.737  25.862  0.00  0.00     0.027 C 
ENDBRANCH  11  17
ENDBRANCH   1   8
BRANCH   3  19
ATOM     19  O   UNL d   1     -23.741  22.915  21.659  0.00  0.00    -0.319 OA
BRANCH  19  20
ATOM     20  C   UNL d   1     -23.835  23.445  20.336  0.00  0.00     0.234 C 
ATOM     21  C   UNL d   1     -22.441  23.840  19.845  0.00  0.00     0.049 C 
BRANCH  20  22
ATOM     22  C   UNL d   1     -24.423  22.386  19.402  0.00  0.00     0.413 C 
ATOM     23  F   UNL d   1     -23.550  21.295  19.326  0.00  0.00    -0.168 F 
ATOM     24  F   UNL d   1     -25.659  21.960  19.899  0.00  0.00    -0.168 F 
ATOM     25  F   UNL d   1     -24.597  22.933  18.126  0.00  0.00    -0.168 F 
ENDBRANCH  20  22
ENDBRANCH  19  20
ENDBRANCH   3  19
BRANCH   4  26
ATOM     26  C   UNL d   1     -22.810  25.042  23.268  0.00  0.00     0.260 C 
ATOM     27  O   UNL d   1     -22.649  26.104  22.697  0.00  0.00    -0.267 OA
ATOM     28  N   UNL d   1     -21.750  24.379  23.771  0.00  0.00    -0.320 N 
ATOM     29  H   UNL d   1     -21.884  23.564  24.279  0.00  0.00     0.169 HD
BRANCH  28  30
ATOM     30  C   UNL d   1     -20.455  24.866  23.560  0.00  0.00     0.075 A 
ATOM     31  C   UNL d   1     -19.854  25.699  24.495  0.00  0.00     0.152 A 
ATOM     32  N   UNL d   1     -18.633  26.160  24.299  0.00  0.00    -0.246 NA
ATOM     33 CL   UNL d   1     -20.717  26.138  25.937  0.00  0.00    -0.060 Cl
ATOM     34  C   UNL d   1     -17.940  25.852  23.220  0.00  0.00     0.118 A 
ATOM     35  C   UNL d   1     -18.471  25.029  22.245  0.00  0.00     0.022 A 
ATOM     36  C   UNL d   1     -19.748  24.518  22.411  0.00  0.00     0.034 A 
ENDBRANCH  28  30
ENDBRANCH   4  26
TORSDOF 9
ENDMDL
