MODEL 1
REMARK VINA RESULT:     -12.7      0.000      0.000
REMARK  5 active torsions:
REMARK  status: ('A' for Active; 'I' for Inactive)
REMARK    1  A    between atoms: O_2  and  C_3 
REMARK    2  A    between atoms: C_7  and  C_8 
REMARK    3  A    between atoms: C_13  and  N_14 
REMARK       I    between atoms: N_14  and  C_15 
REMARK    4  A    between atoms: C_15  and  C_17 
REMARK    5  A    between atoms: C_18  and  O_19 
ROOT
ATOM      1  C   UNL d   1     -24.339  23.343  22.251  0.00  0.00     0.058 A 
ATOM      2  C   UNL d   1     -24.930  22.251  21.615  0.00  0.00     0.171 A 
ATOM      3  F   UNL d   1     -24.310  21.662  20.569  0.00  0.00    -0.202 F 
ATOM      4  C   UNL d   1     -26.151  21.773  22.054  0.00  0.00     0.185 A 
ATOM      5  F   UNL d   1     -26.724  20.717  21.438  0.00  0.00    -0.200 F 
ATOM      6  C   UNL d   1     -26.789  22.381  23.131  0.00  0.00     0.119 A 
ATOM      7  C   UNL d   1     -26.205  23.472  23.765  0.00  0.00     0.185 A 
ATOM      8  F   UNL d   1     -26.831  24.061  24.806  0.00  0.00    -0.200 F 
ATOM      9  C   UNL d   1     -24.982  23.950  23.331  0.00  0.00     0.171 A 
ATOM     10  F   UNL d   1     -24.413  25.008  23.950  0.00  0.00    -0.202 F 
ENDROOT
BRANCH   6  11
ATOM     11  N   UNL d   1     -28.025  21.895  23.573  0.00  0.00    -0.317 N 
ATOM     12  C   UNL d   1     -29.168  22.418  23.087  0.00  0.00     0.263 C 
ATOM     13  O   UNL d   1     -29.127  23.249  22.198  0.00  0.00    -0.267 OA
ATOM     14  H   UNL d   1     -28.060  21.178  24.225  0.00  0.00     0.169 HD
BRANCH  12  15
ATOM     15  C   UNL d   1     -30.458  21.990  23.628  0.00  0.00     0.115 A 
ATOM     16  C   UNL d   1     -31.663  21.846  22.913  0.00  0.00     0.078 A 
ATOM     17  N   UNL d   1     -32.610  21.427  23.805  0.00  0.00    -0.242 N 
ATOM     18  C   UNL d   1     -32.002  22.044  21.568  0.00  0.00     0.033 A 
ATOM     19  N   UNL d   1     -32.003  21.320  25.062  0.00  0.00    -0.141 NA
ATOM     20  C   UNL d   1     -33.886  21.198  23.390  0.00  0.00     0.119 A 
ATOM     21  C   UNL d   1     -30.736  21.649  24.969  0.00  0.00     0.200 A 
ATOM     22  C   UNL d   1     -34.236  21.389  22.097  0.00  0.00     0.019 A 
ATOM     23  C   UNL d   1     -33.284  21.816  21.161  0.00  0.00     0.004 A 
BRANCH  21  24
ATOM     24  O   UNL d   1     -29.843  21.660  25.991  0.00  0.00    -0.343 OA
ATOM     25  H   UNL d   1     -29.421  22.519  26.135  0.00  0.00     0.219 HD
ENDBRANCH  21  24
ENDBRANCH  12  15
ENDBRANCH   6  11
BRANCH   1  26
ATOM     26  C   UNL d   1     -23.029  23.857  21.783  0.00  0.00    -0.017 A 
ATOM     27  C   UNL d   1     -22.918  24.440  20.522  0.00  0.00     0.012 A 
ATOM     28  C   UNL d   1     -21.698  24.918  20.087  0.00  0.00     0.004 A 
ATOM     29  C   UNL d   1     -20.584  24.821  20.900  0.00  0.00     0.037 A 
ATOM     30  C   UNL d   1     -20.687  24.243  22.159  0.00  0.00     0.069 A 
ATOM     31  C   UNL d   1     -21.907  23.765  22.605  0.00  0.00     0.049 A 
BRANCH  30  32
ATOM     32  O   UNL d   1     -19.589  24.149  22.954  0.00  0.00    -0.356 OA
ATOM     33  C   UNL d   1     -19.673  24.746  24.250  0.00  0.00     0.210 C 
ENDBRANCH  30  32
ENDBRANCH   1  26
TORSDOF 5
ENDMDL
