MODEL 1
REMARK VINA RESULT:     -11.5      0.000      0.000
REMARK  7 active torsions:
REMARK  status: ('A' for Active; 'I' for Inactive)
REMARK    1  A    between atoms: C_2  and  O_3 
REMARK    2  A    between atoms: C_2  and  C_4 
REMARK    3  A    between atoms: C_5  and  C_6 
REMARK       I    between atoms: C_6  and  N_8 
REMARK    4  A    between atoms: N_8  and  C_9 
REMARK    5  A    between atoms: C_14  and  C_15 
REMARK    6  A    between atoms: C_19  and  O_20 
REMARK    7  A    between atoms: O_20  and  C_21 
ROOT
ATOM      1  C   UNL d   1     -26.941  22.201  23.124  0.00  0.00     0.119 A 
ATOM      2  C   UNL d   1     -26.358  21.664  21.979  0.00  0.00     0.185 A 
ATOM      3  F   UNL d   1     -26.972  20.658  21.318  0.00  0.00    -0.200 F 
ATOM      4  C   UNL d   1     -25.153  22.158  21.519  0.00  0.00     0.171 A 
ATOM      5  F   UNL d   1     -24.588  21.636  20.409  0.00  0.00    -0.202 F 
ATOM      6  C   UNL d   1     -24.516  23.193  22.206  0.00  0.00     0.058 A 
ATOM      7  C   UNL d   1     -25.105  23.735  23.350  0.00  0.00     0.171 A 
ATOM      8  F   UNL d   1     -24.493  24.741  24.014  0.00  0.00    -0.202 F 
ATOM      9  C   UNL d   1     -26.311  23.237  23.806  0.00  0.00     0.185 A 
ATOM     10  F   UNL d   1     -26.878  23.757  24.917  0.00  0.00    -0.200 F 
ENDROOT
BRANCH   1  11
ATOM     11  N   UNL d   1     -28.160  21.700  23.587  0.00  0.00    -0.318 N 
ATOM     12  C   UNL d   1     -29.309  22.342  23.294  0.00  0.00     0.253 C 
ATOM     13  O   UNL d   1     -29.294  23.298  22.542  0.00  0.00    -0.268 OA
ATOM     14  H   UNL d   1     -28.181  20.890  24.122  0.00  0.00     0.169 HD
BRANCH  12  15
ATOM     15  C   UNL d   1     -30.581  21.887  23.885  0.00  0.00     0.023 C 
ATOM     16  C   UNL d   1     -30.749  21.548  25.171  0.00  0.00     0.027 C 
ATOM     17  C   UNL d   1     -32.179  21.132  25.428  0.00  0.00     0.046 C 
ATOM     18  C   UNL d   1     -32.770  20.854  24.027  0.00  0.00     0.010 C 
ATOM     19  C   UNL d   1     -31.881  21.744  23.126  0.00  0.00     0.045 C 
BRANCH  16  20
ATOM     20  C   UNL d   1     -29.686  21.579  26.192  0.00  0.00     0.172 C 
ATOM     21  O   UNL d   1     -29.697  22.433  27.055  0.00  0.00    -0.646 OA
BRANCH  20  22
ATOM     22  O   UNL d   1     -28.700  20.660  26.168  0.00  0.00    -0.773 OA
ATOM     23  H   UNL d   1     -28.044  20.737  25.463  0.00  0.00     0.167 HD
ENDBRANCH  20  22
ENDBRANCH  16  20
ENDBRANCH  12  15
ENDBRANCH   1  11
BRANCH   6  24
ATOM     24  C   UNL d   1     -23.219  23.721  21.718  0.00  0.00    -0.017 A 
ATOM     25  C   UNL d   1     -22.079  23.616  22.511  0.00  0.00     0.049 A 
ATOM     26  C   UNL d   1     -20.869  24.106  22.046  0.00  0.00     0.079 A 
ATOM     27  C   UNL d   1     -20.797  24.710  20.799  0.00  0.00     0.037 A 
ATOM     28  C   UNL d   1     -21.930  24.820  20.013  0.00  0.00     0.004 A 
ATOM     29  C   UNL d   1     -23.138  24.329  20.466  0.00  0.00     0.012 A 
BRANCH  26  30
ATOM     30  O   UNL d   1     -19.753  24.000  22.816  0.00  0.00    -0.255 OA
BRANCH  30  31
ATOM     31  C   UNL d   1     -19.309  25.185  23.481  0.00  0.00     0.530 C 
ATOM     32  F   UNL d   1     -18.304  25.796  22.724  0.00  0.00    -0.144 F 
ATOM     33  F   UNL d   1     -20.384  26.067  23.628  0.00  0.00    -0.144 F 
ATOM     34  F   UNL d   1     -18.804  24.850  24.742  0.00  0.00    -0.144 F 
ENDBRANCH  30  31
ENDBRANCH  26  30
ENDBRANCH   6  24
TORSDOF 7
ENDMDL
