MODEL 1
REMARK VINA RESULT:      -9.2      0.000      0.000
REMARK  7 active torsions:
REMARK  status: ('A' for Active; 'I' for Inactive)
REMARK    1  A    between atoms: C_2  and  O_3 
REMARK    2  A    between atoms: C_4  and  C_7 
REMARK       I    between atoms: C_7  and  N_9 
REMARK    3  A    between atoms: N_9  and  C_10 
REMARK    4  A    between atoms: C_12  and  O_13 
REMARK    5  A    between atoms: O_13  and  C_14 
REMARK    6  A    between atoms: C_17  and  C_18 
REMARK       I    between atoms: C_18  and  N_20 
REMARK    7  A    between atoms: N_20  and  C_21 
ROOT
ATOM      1  C   UNL d   1     -31.876  21.547  23.801  0.00  0.00     0.077 C 
ATOM      2  C   UNL d   1     -30.451  22.021  23.677  0.00  0.00     0.065 C 
ATOM      3  C   UNL d   1     -29.593  21.885  24.727  0.00  0.00     0.141 C 
ATOM      4  C   UNL d   1     -30.045  21.290  25.949  0.00  0.00     0.107 C 
ATOM      5  N   UNL d   1     -30.404  20.818  26.918  0.00  0.00    -0.191 NA
ENDROOT
BRANCH   3   6
ATOM      6  C   UNL d   1     -28.203  22.347  24.605  0.00  0.00     0.269 C 
ATOM      7  O   UNL d   1     -27.386  22.049  25.457  0.00  0.00    -0.266 OA
ATOM      8  N   UNL d   1     -27.833  23.100  23.551  0.00  0.00    -0.320 N 
ATOM      9  H   UNL d   1     -28.462  23.273  22.834  0.00  0.00     0.169 HD
BRANCH   8  10
ATOM     10  C   UNL d   1     -26.544  23.629  23.490  0.00  0.00     0.076 A 
ATOM     11  C   UNL d   1     -26.183  24.678  24.336  0.00  0.00     0.144 A 
ATOM     12  C   UNL d   1     -24.912  25.205  24.282  0.00  0.00     0.064 A 
ATOM     13  F   UNL d   1     -27.084  25.179  25.210  0.00  0.00    -0.204 F 
ATOM     14  C   UNL d   1     -23.978  24.684  23.381  0.00  0.00     0.068 A 
ATOM     15  C   UNL d   1     -24.344  23.632  22.527  0.00  0.00     0.087 A 
ATOM     16  C   UNL d   1     -25.624  23.110  22.590  0.00  0.00     0.070 A 
BRANCH  14  17
ATOM     17  C   UNL d   1     -22.616  25.241  23.324  0.00  0.00     0.259 C 
ATOM     18  O   UNL d   1     -22.381  26.204  22.619  0.00  0.00    -0.267 OA
ATOM     19  N   UNL d   1     -21.629  24.681  24.051  0.00  0.00    -0.320 N 
ATOM     20  H   UNL d   1     -21.796  23.866  24.551  0.00  0.00     0.169 HD
BRANCH  19  21
ATOM     21  C   UNL d   1     -20.362  25.275  24.087  0.00  0.00     0.079 A 
ATOM     22  C   UNL d   1     -20.053  26.198  25.079  0.00  0.00     0.062 A 
ATOM     23  C   UNL d   1     -18.801  26.783  25.111  0.00  0.00     0.026 A 
ATOM     24 CL   UNL d   1     -21.237  26.615  26.277  0.00  0.00    -0.082 Cl
ATOM     25  C   UNL d   1     -17.857  26.452  24.157  0.00  0.00     0.003 A 
ATOM     26  C   UNL d   1     -18.161  25.535  23.168  0.00  0.00     0.026 A 
ATOM     27  C   UNL d   1     -19.409  24.941  23.133  0.00  0.00     0.062 A 
ATOM     28 CL   UNL d   1     -19.787  23.784  21.894  0.00  0.00    -0.082 Cl
ENDBRANCH  19  21
ENDBRANCH  14  17
BRANCH  15  29
ATOM     29  O   UNL d   1     -23.444  23.125  21.646  0.00  0.00    -0.346 OA
BRANCH  29  30
ATOM     30  C   UNL d   1     -23.623  23.464  20.269  0.00  0.00     0.120 C 
ATOM     31  C   UNL d   1     -23.964  22.202  19.474  0.00  0.00     0.040 C 
ATOM     32  C   UNL d   1     -22.332  24.078  19.724  0.00  0.00     0.040 C 
ENDBRANCH  29  30
ENDBRANCH  15  29
ENDBRANCH   8  10
ENDBRANCH   3   6
BRANCH   2  33
ATOM     33  O   UNL d   1     -30.027  22.579  22.530  0.00  0.00    -0.364 OA
ATOM     34  H   UNL d   1     -30.138  22.060  21.722  0.00  0.00     0.217 HD
ENDBRANCH   2  33
TORSDOF 7
ENDMDL
