MODEL 1
REMARK VINA RESULT:      -7.9      0.000      0.000
REMARK  6 active torsions:
REMARK  status: ('A' for Active; 'I' for Inactive)
REMARK    1  A    between atoms: C_2  and  O_3 
REMARK    2  A    between atoms: C_2  and  C_31 
REMARK    3  A    between atoms: O_3  and  C_4 
REMARK    4  A    between atoms: C_6  and  N_7 
REMARK    5  A    between atoms: C_20  and  C_21 
REMARK       I    between atoms: C_21  and  N_23 
REMARK    6  A    between atoms: N_23  and  C_24 
ROOT
ATOM      1  C   UNL d   1     -19.886  26.114  25.045  0.00  0.00     0.087 A 
ATOM      2  C   UNL d   1     -20.571  25.263  24.195  0.00  0.00     0.073 A 
ATOM      3  C   UNL d   1     -21.858  25.579  23.784  0.00  0.00     0.104 A 
ATOM      4  C   UNL d   1     -22.467  26.754  24.221  0.00  0.00     0.146 A 
ATOM      5  F   UNL d   1     -23.720  27.056  23.817  0.00  0.00    -0.204 F 
ATOM      6  C   UNL d   1     -21.795  27.608  25.067  0.00  0.00     0.064 A 
ATOM      7  C   UNL d   1     -20.498  27.295  25.491  0.00  0.00     0.068 A 
ENDROOT
BRANCH   7   8
ATOM      8  C   UNL d   1     -19.778  28.204  26.399  0.00  0.00     0.254 C 
ATOM      9  O   UNL d   1     -20.347  28.677  27.363  0.00  0.00    -0.268 OA
ATOM     10  N   UNL d   1     -18.488  28.512  26.160  0.00  0.00    -0.352 N 
ATOM     11  H   UNL d   1     -18.034  28.135  25.390  0.00  0.00     0.163 HD
BRANCH  10  12
ATOM     12  C   UNL d   1     -17.771  29.416  27.063  0.00  0.00     0.088 C 
ATOM     13  C   UNL d   1     -17.183  28.616  28.228  0.00  0.00     0.055 C 
ATOM     14  C   UNL d   1     -16.385  29.556  29.134  0.00  0.00     0.274 C 
ATOM     15  N   UNL d   1     -15.309  30.189  28.359  0.00  0.00     0.084 N 
ATOM     16  C   UNL d   1     -15.853  31.001  27.263  0.00  0.00     0.274 C 
ATOM     17  C   UNL d   1     -14.438  30.991  29.227  0.00  0.00     0.309 C 
ATOM     18  C   UNL d   1     -16.635  30.105  26.301  0.00  0.00     0.055 C 
ENDBRANCH  10  12
ENDBRANCH   7   8
BRANCH   1  19
ATOM     19  O   UNL d   1     -18.628  25.807  25.448  0.00  0.00    -0.345 OA
BRANCH  19  20
ATOM     20  C   UNL d   1     -17.666  25.537  24.426  0.00  0.00     0.129 C 
ATOM     21  C   UNL d   1     -17.832  26.548  23.290  0.00  0.00     0.040 C 
BRANCH  20  22
ATOM     22  C   UNL d   1     -16.256  25.651  25.010  0.00  0.00     0.015 C 
ATOM     23  C   UNL d   1     -15.619  26.963  24.548  0.00  0.00     0.007 C 
ATOM     24  C   UNL d   1     -14.209  27.077  25.131  0.00  0.00     0.000 C 
ATOM     25  C   UNL d   1     -14.286  27.057  26.659  0.00  0.00     0.000 C 
ATOM     26  C   UNL d   1     -14.924  25.745  27.120  0.00  0.00     0.000 C 
ATOM     27  C   UNL d   1     -16.333  25.631  26.537  0.00  0.00     0.007 C 
ENDBRANCH  20  22
ENDBRANCH  19  20
ENDBRANCH   1  19
BRANCH   3  28
ATOM     28  N   UNL d   1     -22.546  24.717  22.926  0.00  0.00    -0.178 N 
ATOM     29  C   UNL d   1     -22.336  24.573  21.599  0.00  0.00     0.351 A 
ATOM     30  N   UNL d   1     -23.185  23.630  21.159  0.00  0.00    -0.284 N 
ATOM     31  O   UNL d   1     -21.526  25.185  20.927  0.00  0.00    -0.244 OA
ATOM     32  C   UNL d   1     -23.957  23.210  22.222  0.00  0.00     0.131 A 
ATOM     33  C   UNL d   1     -23.291  23.088  19.799  0.00  0.00     0.135 C 
ATOM     34  N   UNL d   1     -23.579  23.837  23.284  0.00  0.00    -0.149 NA
ATOM     35  C   UNL d   1     -25.064  22.189  22.103  0.00  0.00     0.081 C 
ATOM     36  C   UNL d   1     -24.853  21.409  20.799  0.00  0.00     0.009 C 
ATOM     37  C   UNL d   1     -24.653  22.403  19.650  0.00  0.00     0.021 C 
ENDBRANCH   3  28
TORSDOF 6
ENDMDL
