MODEL 1
REMARK VINA RESULT:      -9.7      0.000      0.000
REMARK  9 active torsions:
REMARK  status: ('A' for Active; 'I' for Inactive)
REMARK    1  A    between atoms: C_2  and  C_3 
REMARK    2  A    between atoms: C_3  and  C_4 
REMARK    3  A    between atoms: C_4  and  O_6 
REMARK    4  A    between atoms: O_6  and  C_7 
REMARK    5  A    between atoms: C_9  and  N_10 
REMARK    6  A    between atoms: C_12  and  C_13 
REMARK    7  A    between atoms: C_13  and  O_15 
REMARK    8  A    between atoms: C_23  and  C_24 
REMARK       I    between atoms: C_24  and  N_26 
REMARK    9  A    between atoms: N_26  and  C_27 
ROOT
ATOM      1  C   UNL d   1     -26.250  23.175  23.393  0.00  0.00     0.087 A 
ATOM      2  C   UNL d   1     -27.616  23.020  23.554  0.00  0.00     0.073 A 
ATOM      3  C   UNL d   1     -28.323  22.172  22.714  0.00  0.00     0.104 A 
ATOM      4  C   UNL d   1     -27.665  21.478  21.699  0.00  0.00     0.146 A 
ATOM      5  F   UNL d   1     -28.361  20.657  20.882  0.00  0.00    -0.204 F 
ATOM      6  C   UNL d   1     -26.307  21.629  21.526  0.00  0.00     0.064 A 
ATOM      7  C   UNL d   1     -25.585  22.479  22.372  0.00  0.00     0.068 A 
ENDROOT
BRANCH   3   8
ATOM      8  N   UNL d   1     -29.701  22.014  22.883  0.00  0.00    -0.178 N 
ATOM      9  C   UNL d   1     -30.333  21.683  24.029  0.00  0.00     0.351 A 
ATOM     10  N   UNL d   1     -31.654  21.636  23.761  0.00  0.00    -0.286 N 
ATOM     11  O   UNL d   1     -29.808  21.466  25.105  0.00  0.00    -0.244 OA
ATOM     12  C   UNL d   1     -31.838  21.942  22.435  0.00  0.00     0.159 A 
ATOM     13  C   UNL d   1     -32.713  21.313  24.721  0.00  0.00     0.163 C 
ATOM     14  N   UNL d   1     -30.683  22.167  21.894  0.00  0.00    -0.146 NA
BRANCH  12  15
ATOM     15  C   UNL d   1     -33.165  22.002  21.724  0.00  0.00     0.185 C 
ATOM     16  C   UNL d   1     -33.851  20.636  21.808  0.00  0.00     0.048 C 
BRANCH  15  17
ATOM     17  O   UNL d   1     -32.956  22.346  20.353  0.00  0.00    -0.388 OA
ATOM     18  H   UNL d   1     -33.368  21.736  19.727  0.00  0.00     0.210 HD
ENDBRANCH  15  17
ENDBRANCH  12  15
ENDBRANCH   3   8
BRANCH   1  19
ATOM     19  O   UNL d   1     -25.557  24.000  24.216  0.00  0.00    -0.345 OA
BRANCH  19  20
ATOM     20  C   UNL d   1     -25.889  25.389  24.173  0.00  0.00     0.124 C 
ATOM     21  C   UNL d   1     -26.291  25.861  25.572  0.00  0.00     0.040 C 
BRANCH  20  22
ATOM     22  C   UNL d   1     -24.676  26.190  23.694  0.00  0.00     0.032 C 
BRANCH  22  23
ATOM     23  C   UNL d   1     -23.643  26.272  24.819  0.00  0.00    -0.002 C 
ATOM     24  C   UNL d   1     -22.431  27.072  24.340  0.00  0.00     0.005 C 
ENDBRANCH  22  23
ENDBRANCH  20  22
ENDBRANCH  19  20
ENDBRANCH   1  19
BRANCH   7  25
ATOM     25  C   UNL d   1     -24.133  22.644  22.191  0.00  0.00     0.259 C 
ATOM     26  O   UNL d   1     -23.416  21.665  22.114  0.00  0.00    -0.267 OA
ATOM     27  N   UNL d   1     -23.600  23.880  22.110  0.00  0.00    -0.322 N 
ATOM     28  H   UNL d   1     -24.179  24.657  22.089  0.00  0.00     0.169 HD
BRANCH  27  29
ATOM     29  C   UNL d   1     -22.211  24.039  22.056  0.00  0.00     0.041 A 
ATOM     30  C   UNL d   1     -21.594  24.361  20.854  0.00  0.00    -0.035 A 
ATOM     31  C   UNL d   1     -20.224  24.519  20.804  0.00  0.00     0.009 A 
ATOM     32  C   UNL d   1     -22.420  24.538  19.606  0.00  0.00     0.050 C 
ATOM     33  C   UNL d   1     -19.465  24.358  21.950  0.00  0.00     0.001 A 
ATOM     34  C   UNL d   1     -20.077  24.038  23.148  0.00  0.00     0.002 A 
ATOM     35  C   UNL d   1     -21.447  23.883  23.206  0.00  0.00     0.030 A 
ENDBRANCH  27  29
ENDBRANCH   7  25
TORSDOF 9
ENDMDL
