MODEL 1
REMARK VINA RESULT:     -10.4      0.000      0.000
REMARK  6 active torsions:
REMARK  status: ('A' for Active; 'I' for Inactive)
REMARK       I    between atoms: N_2  and  C_3 
REMARK    1  A    between atoms: C_3  and  C_5 
REMARK    2  A    between atoms: C_11  and  C_12 
REMARK    3  A    between atoms: C_12  and  C_13 
REMARK    4  A    between atoms: C_13  and  C_14 
REMARK    5  A    between atoms: CA_15  and  C_16 
REMARK    6  A    between atoms: C_16  and  OXT_18 
ROOT
ATOM      1  C   UNL d   1     -28.396  21.468  23.500  0.00  0.00     0.043 C 
ENDROOT
BRANCH   1   2
ATOM      2  C   UNL d   1     -27.113  22.098  23.024  0.00  0.00    -0.057 A 
ATOM      3  C   UNL d   1     -26.621  21.773  21.797  0.00  0.00     0.019 A 
ATOM      4  C   UNL d   1     -25.423  22.358  21.350  0.00  0.00    -0.024 A 
ATOM      5  C   UNL d   1     -24.887  22.044  20.089  0.00  0.00     0.012 A 
ATOM      6  C   UNL d   1     -24.749  23.280  22.186  0.00  0.00    -0.010 A 
ATOM      7  C   UNL d   1     -23.724  22.624  19.678  0.00  0.00     0.002 A 
ATOM      8  C   UNL d   1     -23.044  23.526  20.486  0.00  0.00     0.018 A 
ATOM      9  C   UNL d   1     -23.541  23.871  21.734  0.00  0.00     0.043 A 
ATOM     10  C   UNL d   1     -25.285  23.593  23.442  0.00  0.00     0.014 A 
ATOM     11  C   UNL d   1     -26.447  23.006  23.844  0.00  0.00     0.008 A 
BRANCH   9  12
ATOM     12  C   UNL d   1     -22.818  24.833  22.585  0.00  0.00     0.252 C 
ATOM     13  N   UNL d   1     -21.892  24.396  23.461  0.00  0.00    -0.361 N 
ATOM     14  C   UNL d   1     -21.173  25.353  24.305  0.00  0.00     0.149 C 
ATOM     15  H   UNL d   1     -21.701  23.448  23.531  0.00  0.00     0.162 HD
ATOM     16  O   UNL d   1     -23.057  26.023  22.496  0.00  0.00    -0.268 OA
ENDBRANCH   9  12
ENDBRANCH   1   2
BRANCH   1  17
ATOM     17  C   UNL d   1     -29.454  22.555  23.701  0.00  0.00     0.051 C 
BRANCH  17  18
ATOM     18  C   UNL d   1     -30.786  22.057  23.204  0.00  0.00     0.044 A 
ATOM     19  C   UNL d   1     -31.183  22.241  21.802  0.00  0.00     0.258 A 
ATOM     20  N   UNL d   1     -32.384  21.775  21.399  0.00  0.00    -0.275 N 
ATOM     21  O   UNL d   1     -30.441  22.801  21.017  0.00  0.00    -0.267 OA
ATOM     22  C   UNL d   1     -33.204  21.162  22.271  0.00  0.00     0.327 A 
ATOM     23  H   UNL d   1     -32.658  21.887  20.475  0.00  0.00     0.173 HD
ATOM     24  N   UNL d   1     -32.864  20.987  23.559  0.00  0.00    -0.302 N 
ATOM     25  O   UNL d   1     -34.282  20.755  21.883  0.00  0.00    -0.247 OA
ATOM     26  CA  UNL d   1     -31.652  21.431  24.043  0.00  0.00     0.122 A 
ATOM     27  H   UNL d   1     -33.482  20.540  24.157  0.00  0.00     0.171 HD
BRANCH  26  28
ATOM     28  C   UNL d   1     -31.297  21.227  25.467  0.00  0.00     0.194 C 
ATOM     29  O   UNL d   1     -31.572  22.077  26.290  0.00  0.00    -0.645 OA
BRANCH  28  30
ATOM     30  OXT UNL d   1     -30.669  20.098  25.851  0.00  0.00    -0.772 OA
ATOM     31  HXT UNL d   1     -29.789  20.195  26.240  0.00  0.00     0.167 HD
ENDBRANCH  28  30
ENDBRANCH  26  28
ENDBRANCH  17  18
ENDBRANCH   1  17
TORSDOF 6
ENDMDL
