MODEL 1
REMARK VINA RESULT:     -11.3      0.000      0.000
REMARK  3 active torsions:
REMARK  status: ('A' for Active; 'I' for Inactive)
REMARK       I    between atoms: N_1  and  C_2 
REMARK    1  A    between atoms: C_2  and  C_4 
REMARK    2  A    between atoms: C_11  and  C_12 
REMARK    3  A    between atoms: C_15  and  C_16 
ROOT
ATOM      1  C   UNL d   1     -32.638  21.522  23.181  0.00  0.00     0.062 A 
ATOM      2  C   UNL d   1     -33.567  20.976  24.065  0.00  0.00     0.020 A 
ATOM      3  C   UNL d   1     -33.163  20.507  25.301  0.00  0.00     0.003 A 
ATOM      4  C   UNL d   1     -31.836  20.573  25.680  0.00  0.00     0.032 A 
ATOM      5  C   UNL d   1     -30.890  21.111  24.821  0.00  0.00     0.064 A 
ATOM      6  N   UNL d   1     -29.525  21.310  24.905  0.00  0.00    -0.338 N 
ATOM      7  H   UNL d   1     -28.954  21.084  25.655  0.00  0.00     0.167 HD
ATOM      8  C   UNL d   1     -29.132  21.891  23.730  0.00  0.00     0.139 A 
ATOM      9  N   UNL d   1     -30.174  22.057  22.949  0.00  0.00    -0.227 NA
ATOM     10  C   UNL d   1     -31.280  21.593  23.559  0.00  0.00     0.101 A 
ENDROOT
BRANCH   8  11
ATOM     11  C   UNL d   1     -27.747  22.278  23.394  0.00  0.00     0.010 A 
ATOM     12  C   UNL d   1     -27.091  23.253  24.149  0.00  0.00     0.016 A 
ATOM     13  C   UNL d   1     -25.797  23.609  23.838  0.00  0.00     0.013 A 
ATOM     14  C   UNL d   1     -25.146  23.004  22.764  0.00  0.00    -0.025 A 
ATOM     15  C   UNL d   1     -25.800  22.029  22.009  0.00  0.00     0.013 A 
ATOM     16  C   UNL d   1     -27.091  21.669  22.320  0.00  0.00     0.016 A 
BRANCH  14  17
ATOM     17  C   UNL d   1     -23.755  23.392  22.426  0.00  0.00    -0.008 A 
ATOM     18  C   UNL d   1     -23.441  23.872  21.156  0.00  0.00     0.128 A 
ATOM     19  N   UNL d   1     -22.206  24.217  20.857  0.00  0.00    -0.272 NA
ATOM     20  C   UNL d   1     -21.224  24.122  21.733  0.00  0.00     0.116 A 
ATOM     21  C   UNL d   1     -21.454  23.654  23.013  0.00  0.00     0.020 A 
ATOM     22  C   UNL d   1     -22.736  23.280  23.377  0.00  0.00     0.015 A 
ENDBRANCH  14  17
ENDBRANCH   8  11
BRANCH   1  23
ATOM     23  C   UNL d   1     -33.070  22.021  21.864  0.00  0.00     0.251 C 
ATOM     24  N   UNL d   1     -32.227  21.967  20.813  0.00  0.00    -0.366 N 
ATOM     25  H   UNL d   1     -31.336  21.600  20.924  0.00  0.00     0.159 HD
ATOM     26  H   UNL d   1     -32.511  22.296  19.947  0.00  0.00     0.159 HD
ATOM     27  O   UNL d   1     -34.187  22.482  21.724  0.00  0.00    -0.268 OA
ENDBRANCH   1  23
TORSDOF 3
ENDMDL
