MODEL 1
REMARK VINA RESULT:      -8.6      0.000      0.000
REMARK  7 active torsions:
REMARK  status: ('A' for Active; 'I' for Inactive)
REMARK    1  A    between atoms: C_3  and  N_4 
REMARK    2  A    between atoms: C_8  and  N_9 
REMARK       I    between atoms: N_9  and  C_10 
REMARK    3  A    between atoms: C_10  and  C_12 
REMARK    4  A    between atoms: C_16  and  N_17 
REMARK    5  A    between atoms: C_28  and  O_29 
REMARK    6  A    between atoms: O_29  and  C_30 
REMARK    7  A    between atoms: C_30  and  C_32 
ROOT
ATOM      1  C   UNL d   1     -19.553  25.258  23.060  0.00  0.00     0.068 A 
ATOM      2  C   UNL d   1     -20.052  24.802  21.835  0.00  0.00     0.064 A 
ATOM      3  C   UNL d   1     -21.325  24.286  21.761  0.00  0.00     0.146 A 
ATOM      4  F   UNL d   1     -21.806  23.845  20.578  0.00  0.00    -0.204 F 
ATOM      5  C   UNL d   1     -22.122  24.217  22.904  0.00  0.00     0.104 A 
ATOM      6  C   UNL d   1     -21.637  24.673  24.122  0.00  0.00     0.073 A 
ATOM      7  C   UNL d   1     -20.355  25.188  24.209  0.00  0.00     0.087 A 
ENDROOT
BRANCH   1   8
ATOM      8  C   UNL d   1     -18.190  25.810  23.144  0.00  0.00     0.259 C 
ATOM      9  N   UNL d   1     -17.962  26.940  23.843  0.00  0.00    -0.322 N 
ATOM     10  H   UNL d   1     -18.683  27.354  24.344  0.00  0.00     0.169 HD
ATOM     11  O   UNL d   1     -17.270  25.247  22.582  0.00  0.00    -0.267 OA
BRANCH   9  12
ATOM     12  C   UNL d   1     -16.687  27.515  23.848  0.00  0.00     0.043 A 
ATOM     13  C   UNL d   1     -15.833  27.298  24.918  0.00  0.00    -0.009 A 
ATOM     14  C   UNL d   1     -16.277  26.444  26.078  0.00  0.00     0.053 C 
ATOM     15  C   UNL d   1     -14.566  27.866  24.918  0.00  0.00     0.034 A 
ATOM     16  C   UNL d   1     -14.162  28.658  23.850  0.00  0.00     0.029 A 
ATOM     17  C   UNL d   1     -15.018  28.876  22.787  0.00  0.00     0.004 A 
ATOM     18  C   UNL d   1     -16.277  28.307  22.783  0.00  0.00     0.030 A 
BRANCH  15  19
ATOM     19  N   UNL d   1     -13.700  27.646  25.992  0.00  0.00    -0.399 N 
ATOM     20  H   UNL d   1     -13.907  26.967  26.651  0.00  0.00     0.156 HD
ATOM     21  H   UNL d   1     -12.892  28.177  26.078  0.00  0.00     0.156 HD
ENDBRANCH  15  19
ENDBRANCH   9  12
ENDBRANCH   1   8
BRANCH   7  22
ATOM     22  O   UNL d   1     -19.878  25.630  25.400  0.00  0.00    -0.345 OA
BRANCH  22  23
ATOM     23  C   UNL d   1     -20.804  26.291  26.265  0.00  0.00     0.129 C 
ATOM     24  C   UNL d   1     -20.602  25.800  27.699  0.00  0.00     0.040 C 
BRANCH  23  25
ATOM     25  C   UNL d   1     -20.568  27.801  26.205  0.00  0.00     0.015 C 
ATOM     26  C   UNL d   1     -21.726  28.527  26.892  0.00  0.00     0.007 C 
ATOM     27  C   UNL d   1     -21.489  30.037  26.832  0.00  0.00     0.000 C 
ATOM     28  C   UNL d   1     -20.179  30.378  27.545  0.00  0.00     0.000 C 
ATOM     29  C   UNL d   1     -19.021  29.652  26.857  0.00  0.00     0.000 C 
ATOM     30  C   UNL d   1     -19.257  28.141  26.917  0.00  0.00     0.007 C 
ENDBRANCH  23  25
ENDBRANCH  22  23
ENDBRANCH   7  22
BRANCH   5  31
ATOM     31  N   UNL d   1     -23.414  23.692  22.822  0.00  0.00    -0.178 N 
ATOM     32  C   UNL d   1     -24.529  24.222  23.371  0.00  0.00     0.351 A 
ATOM     33  N   UNL d   1     -25.558  23.428  23.033  0.00  0.00    -0.284 N 
ATOM     34  O   UNL d   1     -24.590  25.233  24.047  0.00  0.00    -0.244 OA
ATOM     35  C   UNL d   1     -25.066  22.368  22.298  0.00  0.00     0.131 A 
ATOM     36  C   UNL d   1     -26.977  23.623  23.348  0.00  0.00     0.135 C 
ATOM     37  N   UNL d   1     -23.792  22.515  22.159  0.00  0.00    -0.149 NA
ATOM     38  C   UNL d   1     -25.924  21.242  21.772  0.00  0.00     0.081 C 
ATOM     39  C   UNL d   1     -27.386  21.709  21.791  0.00  0.00     0.009 C 
ATOM     40  C   UNL d   1     -27.707  22.287  23.173  0.00  0.00     0.021 C 
ENDBRANCH   5  31
TORSDOF 7
ENDMDL
