MODEL 1
REMARK VINA RESULT:     -13.5      0.000      0.000
REMARK  2 active torsions:
REMARK  status: ('A' for Active; 'I' for Inactive)
REMARK    1  A    between atoms: N_15  and  C_16 
REMARK    2  A    between atoms: C_20  and  C_21 
ROOT
ATOM      1  O   UNL d   1     -32.217  21.103  25.827  0.00  0.00    -0.285 OA
ATOM      2  C   UNL d   1     -31.498  21.451  24.911  0.00  0.00     0.216 A 
ATOM      3  C   UNL d   1     -32.056  21.621  23.552  0.00  0.00     0.031 A 
ATOM      4  C   UNL d   1     -33.406  21.386  23.310  0.00  0.00     0.016 A 
ATOM      5  C   UNL d   1     -33.916  21.550  22.033  0.00  0.00     0.001 A 
ATOM      6  C   UNL d   1     -33.093  21.946  20.996  0.00  0.00     0.001 A 
ATOM      7  C   UNL d   1     -31.747  22.184  21.220  0.00  0.00     0.016 A 
ATOM      8  C   UNL d   1     -31.220  22.024  22.496  0.00  0.00     0.031 A 
ATOM      9  C   UNL d   1     -29.783  22.275  22.751  0.00  0.00     0.214 A 
ATOM     10  O   UNL d   1     -29.055  22.624  21.841  0.00  0.00    -0.285 OA
ATOM     11  C   UNL d   1     -29.241  22.109  24.106  0.00  0.00     0.146 A 
ATOM     12  C   UNL d   1     -30.065  21.706  25.150  0.00  0.00     0.164 A 
ATOM     13  N   UNL d   1     -29.281  21.642  26.234  0.00  0.00    -0.125 NA
ATOM     14  N   UNL d   1     -28.081  21.968  25.905  0.00  0.00    -0.059 NA
ATOM     15  N   UNL d   1     -28.001  22.252  24.652  0.00  0.00    -0.209 N 
ENDROOT
BRANCH  15  16
ATOM     16  C   UNL d   1     -26.845  22.643  23.970  0.00  0.00     0.066 A 
ATOM     17  C   UNL d   1     -26.291  23.896  24.204  0.00  0.00     0.075 A 
ATOM     18  C   UNL d   1     -25.147  24.283  23.536  0.00  0.00     0.132 A 
ATOM     19  C   UNL d   1     -24.550  23.418  22.617  0.00  0.00     0.051 A 
ATOM     20  F   UNL d   1     -24.607  25.500  23.768  0.00  0.00    -0.205 F 
ATOM     21  C   UNL d   1     -25.108  22.159  22.384  0.00  0.00     0.132 A 
ATOM     22  C   UNL d   1     -26.250  21.777  23.059  0.00  0.00     0.075 A 
ATOM     23  F   UNL d   1     -24.530  21.315  21.501  0.00  0.00    -0.205 F 
BRANCH  19  24
ATOM     24  C   UNL d   1     -23.323  23.831  21.895  0.00  0.00    -0.017 A 
ATOM     25  C   UNL d   1     -22.077  23.704  22.505  0.00  0.00     0.054 A 
ATOM     26  C   UNL d   1     -20.936  24.087  21.824  0.00  0.00     0.117 A 
ATOM     27  C   UNL d   1     -21.032  24.605  20.542  0.00  0.00     0.042 A 
ATOM     28  F   UNL d   1     -19.725  23.960  22.410  0.00  0.00    -0.206 F 
ATOM     29  C   UNL d   1     -22.269  24.738  19.936  0.00  0.00     0.004 A 
ATOM     30  C   UNL d   1     -23.412  24.354  20.605  0.00  0.00     0.012 A 
ENDBRANCH  19  24
ENDBRANCH  15  16
TORSDOF 2
ENDMDL
