MODEL 1
REMARK VINA RESULT:      -9.3      0.000      0.000
REMARK  7 active torsions:
REMARK  status: ('A' for Active; 'I' for Inactive)
REMARK    1  A    between atoms: C_7  and  N_8 
REMARK       I    between atoms: N_8  and  C_9 
REMARK    2  A    between atoms: C_9  and  C_11 
REMARK    3  A    between atoms: C_15  and  N_16 
REMARK    4  A    between atoms: C_27  and  O_28 
REMARK    5  A    between atoms: O_28  and  C_29 
REMARK    6  A    between atoms: C_29  and  C_31 
REMARK    7  A    between atoms: C_31  and  N_32 
ROOT
ATOM      1  C   UNL d   1     -25.712  22.572  22.216  0.00  0.00     0.068 A 
ATOM      2  C   UNL d   1     -26.319  21.645  21.361  0.00  0.00     0.064 A 
ATOM      3  C   UNL d   1     -27.687  21.489  21.376  0.00  0.00     0.146 A 
ATOM      4  F   UNL d   1     -28.272  20.594  20.550  0.00  0.00    -0.204 F 
ATOM      5  C   UNL d   1     -28.470  22.253  22.241  0.00  0.00     0.104 A 
ATOM      6  C   UNL d   1     -27.878  23.179  23.088  0.00  0.00     0.073 A 
ATOM      7  C   UNL d   1     -26.503  23.338  23.085  0.00  0.00     0.087 A 
ENDROOT
BRANCH   1   8
ATOM      8  C   UNL d   1     -24.249  22.741  22.202  0.00  0.00     0.259 C 
ATOM      9  N   UNL d   1     -23.714  23.978  22.185  0.00  0.00    -0.322 N 
ATOM     10  H   UNL d   1     -24.290  24.754  22.102  0.00  0.00     0.169 HD
ATOM     11  O   UNL d   1     -23.524  21.764  22.207  0.00  0.00    -0.267 OA
BRANCH   9  12
ATOM     12  C   UNL d   1     -22.329  24.142  22.286  0.00  0.00     0.041 A 
ATOM     13  C   UNL d   1     -21.562  24.299  21.139  0.00  0.00    -0.035 A 
ATOM     14  C   UNL d   1     -22.221  24.292  19.783  0.00  0.00     0.050 C 
ATOM     15  C   UNL d   1     -20.193  24.460  21.242  0.00  0.00     0.009 A 
ATOM     16  C   UNL d   1     -19.589  24.467  22.485  0.00  0.00     0.001 A 
ATOM     17  C   UNL d   1     -20.350  24.311  23.630  0.00  0.00     0.002 A 
ATOM     18  C   UNL d   1     -21.718  24.154  23.533  0.00  0.00     0.030 A 
ENDBRANCH   9  12
ENDBRANCH   1   8
BRANCH   7  19
ATOM     19  O   UNL d   1     -25.921  24.239  23.917  0.00  0.00    -0.343 OA
BRANCH  19  20
ATOM     20  C   UNL d   1     -26.198  24.107  25.312  0.00  0.00     0.153 C 
ATOM     21  C   UNL d   1     -26.714  25.439  25.859  0.00  0.00     0.042 C 
BRANCH  20  22
ATOM     22  C   UNL d   1     -27.258  23.024  25.522  0.00  0.00     0.303 C 
BRANCH  22  23
ATOM     23  N   UNL d   1     -27.289  22.637  26.938  0.00  0.00     0.082 N 
ATOM     24  C   UNL d   1     -28.634  22.814  27.503  0.00  0.00     0.309 C 
ATOM     25  C   UNL d   1     -26.821  21.256  27.117  0.00  0.00     0.309 C 
ENDBRANCH  22  23
ENDBRANCH  20  22
ENDBRANCH  19  20
ENDBRANCH   7  19
BRANCH   5  26
ATOM     26  N   UNL d   1     -29.858  22.090  22.249  0.00  0.00    -0.178 N 
ATOM     27  C   UNL d   1     -30.621  21.783  23.322  0.00  0.00     0.351 A 
ATOM     28  N   UNL d   1     -31.898  21.750  22.907  0.00  0.00    -0.284 N 
ATOM     29  O   UNL d   1     -30.224  21.576  24.454  0.00  0.00    -0.244 OA
ATOM     30  C   UNL d   1     -31.921  21.998  21.550  0.00  0.00     0.131 A 
ATOM     31  C   UNL d   1     -33.095  21.515  23.722  0.00  0.00     0.135 C 
ATOM     32  N   UNL d   1     -30.716  22.211  21.146  0.00  0.00    -0.149 NA
ATOM     33  C   UNL d   1     -33.183  22.005  20.720  0.00  0.00     0.081 C 
ATOM     34  C   UNL d   1     -34.378  22.150  21.672  0.00  0.00     0.009 C 
ATOM     35  C   UNL d   1     -34.249  21.117  22.796  0.00  0.00     0.021 C 
ENDBRANCH   5  26
TORSDOF 7
ENDMDL
