MODEL 1
REMARK VINA RESULT:      -9.8      0.000      0.000
REMARK  6 active torsions:
REMARK  status: ('A' for Active; 'I' for Inactive)
REMARK    1  A    between atoms: C_2  and  N_3 
REMARK    2  A    between atoms: C_4  and  C_5 
REMARK    3  A    between atoms: C_5  and  O_6 
REMARK    4  A    between atoms: N_8  and  C_9 
REMARK    5  A    between atoms: C_12  and  C_13 
REMARK    6  A    between atoms: N_17  and  C_18 
ROOT
ATOM      1  C   UNL d   1     -28.926  22.075  21.970  0.00  0.00     0.103 A 
ATOM      2  C   UNL d   1     -28.205  22.840  22.871  0.00  0.00     0.048 A 
ATOM      3  C   UNL d   1     -26.818  22.901  22.761  0.00  0.00    -0.010 A 
ATOM      4  C   UNL d   1     -26.002  23.698  23.679  0.00  0.00    -0.028 A 
ATOM      5  C   UNL d   1     -24.668  23.726  23.523  0.00  0.00     0.103 A 
ATOM      6  N   UNL d   1     -24.035  23.037  22.527  0.00  0.00    -0.318 N 
ATOM      7  C   UNL d   1     -24.705  22.283  21.634  0.00  0.00     0.259 A 
ATOM      8  O   UNL d   1     -24.104  21.683  20.760  0.00  0.00    -0.267 OA
ATOM      9  C   UNL d   1     -26.165  22.192  21.725  0.00  0.00     0.046 A 
ATOM     10  C   UNL d   1     -26.913  21.427  20.828  0.00  0.00     0.062 A 
ATOM     11  C   UNL d   1     -28.273  21.373  20.953  0.00  0.00     0.146 A 
ATOM     12  F   UNL d   1     -28.994  20.632  20.084  0.00  0.00    -0.204 F 
ENDROOT
BRANCH   1  13
ATOM     13  N   UNL d   1     -30.318  22.005  22.078  0.00  0.00    -0.178 N 
ATOM     14  N   UNL d   1     -31.237  22.068  21.022  0.00  0.00    -0.147 NA
ATOM     15  C   UNL d   1     -32.428  21.967  21.518  0.00  0.00     0.154 A 
ATOM     16  N   UNL d   1     -32.331  21.839  22.882  0.00  0.00    -0.283 N 
ATOM     17  C   UNL d   1     -31.025  21.858  23.218  0.00  0.00     0.351 A 
ATOM     18  O   UNL d   1     -30.567  21.761  24.343  0.00  0.00    -0.244 OA
BRANCH  15  19
ATOM     19  C   UNL d   1     -33.711  21.989  20.730  0.00  0.00     0.244 C 
BRANCH  19  20
ATOM     20  O   UNL d   1     -34.587  22.980  21.271  0.00  0.00    -0.393 OA
ATOM     21  H   UNL d   1     -35.414  22.626  21.624  0.00  0.00     0.209 HD
ENDBRANCH  19  20
ENDBRANCH  15  19
BRANCH  16  22
ATOM     22  C   UNL d   1     -33.453  21.700  23.813  0.00  0.00     0.131 C 
ATOM     23  C   UNL d   1     -33.648  20.224  24.162  0.00  0.00     0.027 C 
ENDBRANCH  16  22
ENDBRANCH   1  13
BRANCH   4  24
ATOM     24  C   UNL d   1     -26.652  24.476  24.794  0.00  0.00     0.013 C 
ATOM     25  C   UNL d   1     -25.795  25.698  25.131  0.00  0.00     0.015 C 
ATOM     26  C   UNL d   1     -26.777  23.585  26.033  0.00  0.00     0.015 C 
ENDBRANCH   4  24
BRANCH   6  27
ATOM     27  C   UNL d   1     -22.576  23.122  22.428  0.00  0.00     0.096 C 
ATOM     28  C   UNL d   1     -22.174  24.380  21.637  0.00  0.00     0.005 C 
ATOM     29  C   UNL d   1     -21.325  25.247  22.590  0.00  0.00     0.006 C 
ATOM     30  C   UNL d   1     -23.424  25.147  21.202  0.00  0.00     0.012 C 
ATOM     31  C   UNL d   1     -20.768  24.239  23.625  0.00  0.00     0.002 C 
ATOM     32  C   UNL d   1     -21.958  23.267  23.833  0.00  0.00     0.026 C 
ENDBRANCH   6  27
TORSDOF 6
ENDMDL
