MODEL 1
REMARK VINA RESULT:     -12.2      0.000      0.000
REMARK  4 active torsions:
REMARK  status: ('A' for Active; 'I' for Inactive)
REMARK    1  A    between atoms: C_7  and  O_8 
REMARK    2  A    between atoms: C_9  and  C_10 
REMARK       I    between atoms: C_10  and  N_12 
REMARK    3  A    between atoms: N_12  and  C_13 
REMARK    4  A    between atoms: C_18  and  C_19 
ROOT
ATOM      1  C   UNL d   1     -26.685  22.736  23.706  0.00  0.00     0.119 A 
ATOM      2  C   UNL d   1     -26.092  23.941  24.066  0.00  0.00     0.185 A 
ATOM      3  F   UNL d   1     -26.650  24.707  25.029  0.00  0.00    -0.200 F 
ATOM      4  C   UNL d   1     -24.929  24.355  23.442  0.00  0.00     0.171 A 
ATOM      5  F   UNL d   1     -24.351  25.524  23.796  0.00  0.00    -0.202 F 
ATOM      6  C   UNL d   1     -24.356  23.567  22.442  0.00  0.00     0.058 A 
ATOM      7  C   UNL d   1     -24.957  22.360  22.080  0.00  0.00     0.171 A 
ATOM      8  F   UNL d   1     -24.405  21.595  21.113  0.00  0.00    -0.202 F 
ATOM      9  C   UNL d   1     -26.116  21.949  22.711  0.00  0.00     0.185 A 
ATOM     10  F   UNL d   1     -26.697  20.781  22.360  0.00  0.00    -0.200 F 
ENDROOT
BRANCH   1  11
ATOM     11  N   UNL d   1     -27.858  22.316  24.344  0.00  0.00    -0.317 N 
ATOM     12  C   UNL d   1     -29.052  22.491  23.744  0.00  0.00     0.263 C 
ATOM     13  O   UNL d   1     -29.120  23.094  22.688  0.00  0.00    -0.267 OA
ATOM     14  H   UNL d   1     -27.811  21.899  25.219  0.00  0.00     0.169 HD
BRANCH  12  15
ATOM     15  C   UNL d   1     -30.265  21.955  24.360  0.00  0.00     0.115 A 
ATOM     16  C   UNL d   1     -30.419  21.544  25.700  0.00  0.00     0.200 A 
ATOM     17  N   UNL d   1     -31.649  21.123  25.870  0.00  0.00    -0.141 NA
ATOM     18  N   UNL d   1     -32.355  21.234  24.666  0.00  0.00    -0.242 N 
ATOM     19  C   UNL d   1     -33.640  20.933  24.334  0.00  0.00     0.119 A 
ATOM     20  C   UNL d   1     -31.506  21.743  23.725  0.00  0.00     0.078 A 
ATOM     21  C   UNL d   1     -34.095  21.135  23.077  0.00  0.00     0.026 A 
ATOM     22  C   UNL d   1     -33.246  21.660  22.093  0.00  0.00    -0.058 A 
ATOM     23  C   UNL d   1     -33.753  21.884  20.692  0.00  0.00     0.048 C 
ATOM     24  C   UNL d   1     -31.956  21.966  22.417  0.00  0.00     0.039 A 
BRANCH  16  25
ATOM     25  O   UNL d   1     -29.454  21.580  26.655  0.00  0.00    -0.343 OA
ATOM     26  H   UNL d   1     -29.469  20.824  27.258  0.00  0.00     0.219 HD
ENDBRANCH  16  25
ENDBRANCH  12  15
ENDBRANCH   1  11
BRANCH   6  27
ATOM     27  C   UNL d   1     -23.114  24.011  21.767  0.00  0.00    -0.020 A 
ATOM     28  C   UNL d   1     -21.880  23.853  22.397  0.00  0.00     0.012 A 
ATOM     29  C   UNL d   1     -20.727  24.269  21.763  0.00  0.00     0.001 A 
ATOM     30  C   UNL d   1     -20.793  24.841  20.506  0.00  0.00     0.000 A 
ATOM     31  C   UNL d   1     -22.014  25.000  19.875  0.00  0.00     0.001 A 
ATOM     32  C   UNL d   1     -23.174  24.583  20.498  0.00  0.00     0.012 A 
ENDBRANCH   6  27
TORSDOF 4
ENDMDL
