MODEL 1
REMARK VINA RESULT:      -9.3      0.000      0.000
REMARK  5 active torsions:
REMARK  status: ('A' for Active; 'I' for Inactive)
REMARK    1  A    between atoms: C_4  and  C_5 
REMARK    2  A    between atoms: C_5  and  C_6 
REMARK    3  A    between atoms: C_6  and  C_7 
REMARK    4  A    between atoms: CA_8  and  C_9 
REMARK    5  A    between atoms: C_9  and  OXT_11 
ROOT
ATOM      1  C   UNL d   1     -27.274  22.060  22.704  0.00  0.00     0.044 A 
ATOM      2  CA  UNL d   1     -26.358  22.816  23.363  0.00  0.00     0.122 A 
ATOM      3  N   UNL d   1     -25.093  22.958  22.833  0.00  0.00    -0.302 N 
ATOM      4  H   UNL d   1     -24.436  23.495  23.304  0.00  0.00     0.171 HD
ATOM      5  C   UNL d   1     -24.754  22.372  21.673  0.00  0.00     0.327 A 
ATOM      6  O   UNL d   1     -23.629  22.526  21.238  0.00  0.00    -0.247 OA
ATOM      7  N   UNL d   1     -25.626  21.618  20.980  0.00  0.00    -0.275 N 
ATOM      8  H   UNL d   1     -25.351  21.208  20.145  0.00  0.00     0.173 HD
ATOM      9  C   UNL d   1     -26.881  21.429  21.438  0.00  0.00     0.258 A 
ATOM     10  O   UNL d   1     -27.672  20.747  20.813  0.00  0.00    -0.267 OA
ENDROOT
BRANCH   1  11
ATOM     11  C   UNL d   1     -28.665  21.879  23.257  0.00  0.00     0.051 C 
BRANCH  11  12
ATOM     12  C   UNL d   1     -29.628  22.820  22.530  0.00  0.00     0.043 C 
BRANCH  12  13
ATOM     13  C   UNL d   1     -30.993  22.184  22.461  0.00  0.00    -0.057 A 
ATOM     14  C   UNL d   1     -31.541  21.598  23.586  0.00  0.00     0.017 A 
ATOM     15  C   UNL d   1     -32.793  21.016  23.524  0.00  0.00    -0.023 A 
ATOM     16  C   UNL d   1     -33.389  20.378  24.752  0.00  0.00     0.051 C 
ATOM     17  C   UNL d   1     -33.498  21.020  22.333  0.00  0.00     0.122 A 
ATOM     18  C   UNL d   1     -32.948  21.607  21.206  0.00  0.00     0.043 A 
ATOM     19  F   UNL d   1     -34.719  20.446  22.269  0.00  0.00    -0.206 F 
ATOM     20  C   UNL d   1     -31.698  22.189  21.271  0.00  0.00     0.010 A 
ENDBRANCH  12  13
ENDBRANCH  11  12
ENDBRANCH   1  11
BRANCH   2  21
ATOM     21  C   UNL d   1     -26.711  23.477  24.641  0.00  0.00     0.194 C 
ATOM     22  O   UNL d   1     -26.958  22.806  25.623  0.00  0.00    -0.645 OA
BRANCH  21  23
ATOM     23  OXT UNL d   1     -26.759  24.820  24.714  0.00  0.00    -0.772 OA
ATOM     24  HXT UNL d   1     -27.320  25.275  24.072  0.00  0.00     0.167 HD
ENDBRANCH  21  23
ENDBRANCH   2  21
TORSDOF 5
ENDMDL
