MODEL 1
REMARK VINA RESULT:     -11.4      0.000      0.000
REMARK  3 active torsions:
REMARK  status: ('A' for Active; 'I' for Inactive)
REMARK       I    between atoms: C_2  and  N_3 
REMARK    1  A    between atoms: C_2  and  C_20 
REMARK    2  A    between atoms: N_3  and  C_4 
REMARK    3  A    between atoms: N_12  and  C_13 
ROOT
ATOM      1  C   UNL d   1     -24.643  23.095  21.766  0.00  0.00     0.121 C 
ATOM      2  C   UNL d   1     -24.747  21.676  21.195  0.00  0.00     0.030 C 
ATOM      3  C   UNL d   1     -26.200  21.384  20.812  0.00  0.00     0.008 C 
ATOM      4  C   UNL d   1     -27.048  21.248  22.083  0.00  0.00     0.060 C 
ATOM      5  C   UNL d   1     -26.773  22.437  22.967  0.00  0.00     0.046 A 
ATOM      6  C   UNL d   1     -25.703  23.261  22.825  0.00  0.00     0.008 A 
ATOM      7  C   UNL d   1     -25.781  24.243  23.812  0.00  0.00     0.150 A 
ATOM      8  N   UNL d   1     -26.862  24.022  24.521  0.00  0.00    -0.179 NA
ATOM      9  N   UNL d   1     -27.500  22.882  24.009  0.00  0.00    -0.235 N 
ENDROOT
BRANCH   1  10
ATOM     10  N   UNL d   1     -23.317  23.294  22.358  0.00  0.00    -0.346 N 
ATOM     11  C   UNL d   1     -22.524  24.291  21.917  0.00  0.00     0.278 C 
ATOM     12  O   UNL d   1     -22.909  25.026  21.028  0.00  0.00    -0.265 OA
ATOM     13  H   UNL d   1     -23.011  22.708  23.067  0.00  0.00     0.163 HD
BRANCH  11  14
ATOM     14  C   UNL d   1     -21.191  24.490  22.514  0.00  0.00     0.177 A 
ATOM     15  C   UNL d   1     -20.879  25.270  23.575  0.00  0.00     0.010 A 
ATOM     16  C   UNL d   1     -19.482  25.110  23.735  0.00  0.00     0.071 A 
ATOM     17  C   UNL d   1     -21.736  26.123  24.465  0.00  0.00     0.044 C 
ATOM     18  N   UNL d   1     -19.097  24.300  22.806  0.00  0.00    -0.132 NA
ATOM     19  C   UNL d   1     -18.692  25.806  24.811  0.00  0.00     0.062 C 
ATOM     20  O   UNL d   1     -20.024  23.939  22.111  0.00  0.00    -0.207 OA
ATOM     21  C   UNL d   1     -19.548  26.954  25.363  0.00  0.00     0.006 C 
ATOM     22  C   UNL d   1     -20.937  26.436  25.738  0.00  0.00     0.005 C 
ENDBRANCH  11  14
ENDBRANCH   1  10
BRANCH   9  23
ATOM     23  C   UNL d   1     -28.686  22.311  24.493  0.00  0.00     0.097 A 
ATOM     24  C   UNL d   1     -28.708  21.705  25.744  0.00  0.00     0.145 A 
ATOM     25  C   UNL d   1     -29.881  21.149  26.221  0.00  0.00     0.045 A 
ATOM     26  F   UNL d   1     -27.586  21.665  26.496  0.00  0.00    -0.204 F 
ATOM     27  C   UNL d   1     -31.029  21.189  25.450  0.00  0.00     0.003 A 
ATOM     28  C   UNL d   1     -31.007  21.786  24.203  0.00  0.00     0.002 A 
ATOM     29  C   UNL d   1     -29.839  22.345  23.721  0.00  0.00     0.035 A 
ENDBRANCH   9  23
TORSDOF 3
ENDMDL
