MODEL 1
REMARK VINA RESULT:     -12.3      0.000      0.000
REMARK  6 active torsions:
REMARK  status: ('A' for Active; 'I' for Inactive)
REMARK    1  A    between atoms: C_2  and  C_5 
REMARK    2  A    between atoms: C_8  and  O_9 
REMARK    3  A    between atoms: O_9  and  C_10 
REMARK    4  A    between atoms: C_13  and  C_14 
REMARK    5  A    between atoms: C_16  and  C_17 
REMARK    6  A    between atoms: C_17  and  O_19 
ROOT
ATOM      1  C   UNL d   1     -24.468  22.930  22.353  0.00  0.00     0.076 A 
ATOM      2  C   UNL d   1     -25.130  23.509  23.428  0.00  0.00     0.038 A 
ATOM      3  C   UNL d   1     -26.470  23.252  23.633  0.00  0.00     0.016 A 
ATOM      4  C   UNL d   1     -27.155  22.401  22.766  0.00  0.00    -0.007 A 
ATOM      5  C   UNL d   1     -26.486  21.816  21.692  0.00  0.00     0.016 A 
ATOM      6  C   UNL d   1     -25.148  22.082  21.489  0.00  0.00     0.038 A 
ENDROOT
BRANCH   4   7
ATOM      7  C   UNL d   1     -28.593  22.117  22.988  0.00  0.00     0.068 A 
ATOM      8  N   UNL d   1     -29.429  22.247  21.979  0.00  0.00    -0.247 NA
ATOM      9  C   UNL d   1     -30.735  22.006  22.099  0.00  0.00     0.069 A 
ATOM     10  C   UNL d   1     -31.270  21.604  23.348  0.00  0.00     0.013 A 
ATOM     11  C   UNL d   1     -31.604  22.149  21.000  0.00  0.00     0.035 A 
ATOM     12  C   UNL d   1     -30.361  21.457  24.487  0.00  0.00     0.052 A 
ATOM     13  C   UNL d   1     -32.641  21.357  23.473  0.00  0.00     0.057 A 
ATOM     14  C   UNL d   1     -29.017  21.725  24.267  0.00  0.00     0.051 A 
ATOM     15  C   UNL d   1     -33.454  21.505  22.385  0.00  0.00     0.117 A 
ATOM     16  F   UNL d   1     -34.778  21.266  22.505  0.00  0.00    -0.206 F 
ATOM     17  C   UNL d   1     -32.932  21.901  21.153  0.00  0.00     0.044 A 
BRANCH  12  18
ATOM     18  C   UNL d   1     -30.854  21.042  25.816  0.00  0.00     0.177 C 
ATOM     19  O   UNL d   1     -31.528  21.805  26.480  0.00  0.00    -0.646 OA
BRANCH  18  20
ATOM     20  O   UNL d   1     -30.557  19.817  26.293  0.00  0.00    -0.773 OA
ATOM     21  H   UNL d   1     -31.239  19.137  26.211  0.00  0.00     0.167 HD
ENDBRANCH  18  20
ENDBRANCH  12  18
ENDBRANCH   4   7
BRANCH   1  22
ATOM     22  O   UNL d   1     -23.151  23.190  22.150  0.00  0.00    -0.311 OA
BRANCH  22  23
ATOM     23  C   UNL d   1     -22.536  24.065  22.989  0.00  0.00     0.076 A 
ATOM     24  C   UNL d   1     -22.870  25.411  22.953  0.00  0.00     0.038 A 
ATOM     25  C   UNL d   1     -22.248  26.298  23.811  0.00  0.00     0.011 A 
ATOM     26  C   UNL d   1     -21.294  25.846  24.703  0.00  0.00    -0.050 A 
ATOM     27  C   UNL d   1     -20.960  24.504  24.740  0.00  0.00     0.011 A 
ATOM     28  C   UNL d   1     -21.578  23.613  23.885  0.00  0.00     0.038 A 
BRANCH  26  29
ATOM     29  C   UNL d   1     -20.618  26.816  25.637  0.00  0.00    -0.024 C 
ATOM     30  C   UNL d   1     -20.520  26.197  27.033  0.00  0.00     0.019 C 
ATOM     31  C   UNL d   1     -19.211  27.127  25.118  0.00  0.00     0.019 C 
ATOM     32  C   UNL d   1     -21.432  28.109  25.707  0.00  0.00     0.019 C 
ENDBRANCH  26  29
ENDBRANCH  22  23
ENDBRANCH   1  22
TORSDOF 6
ENDMDL
