MODEL 1
REMARK VINA RESULT:      -9.1      0.000      0.000
REMARK  5 active torsions:
REMARK  status: ('A' for Active; 'I' for Inactive)
REMARK    1  A    between atoms: C_8  and  N_9 
REMARK    2  A    between atoms: C_11  and  C_12 
REMARK    3  A    between atoms: C_17  and  C_18 
REMARK    4  A    between atoms: C_20  and  C_21 
REMARK    5  A    between atoms: C_21  and  O_24 
ROOT
ATOM      1  N   UNL d   1     -17.167  26.404  24.366  0.00  0.00    -0.283 N 
ATOM      2  C   UNL d   1     -18.007  26.639  25.417  0.00  0.00     0.109 A 
ATOM      3  C   UNL d   1     -19.285  26.227  25.423  0.00  0.00    -0.027 A 
ATOM      4  C   UNL d   1     -19.810  25.498  24.266  0.00  0.00    -0.011 A 
ATOM      5  C   UNL d   1     -21.130  25.050  24.215  0.00  0.00     0.031 A 
ATOM      6  C   UNL d   1     -21.570  24.360  23.094  0.00  0.00     0.053 A 
ATOM      7  C   UNL d   1     -20.703  24.123  22.019  0.00  0.00     0.131 A 
ATOM      8  F   UNL d   1     -21.151  23.453  20.935  0.00  0.00    -0.205 F 
ATOM      9  C   UNL d   1     -19.410  24.561  22.056  0.00  0.00     0.061 A 
ATOM     10  C   UNL d   1     -18.943  25.253  23.175  0.00  0.00     0.046 A 
ATOM     11  C   UNL d   1     -17.563  25.742  23.262  0.00  0.00     0.263 A 
ATOM     12  O   UNL d   1     -16.784  25.552  22.344  0.00  0.00    -0.267 OA
ENDROOT
BRANCH   6  13
ATOM     13  C   UNL d   1     -22.971  23.874  23.032  0.00  0.00     0.184 A 
ATOM     14  N   UNL d   1     -23.422  22.937  22.227  0.00  0.00    -0.150 NA
ATOM     15  N   UNL d   1     -24.792  22.795  22.500  0.00  0.00    -0.256 N 
ATOM     16  C   UNL d   1     -25.080  23.676  23.475  0.00  0.00     0.158 A 
ATOM     17  C   UNL d   1     -25.724  21.869  21.852  0.00  0.00     0.181 C 
ATOM     18  N   UNL d   1     -23.986  24.320  23.784  0.00  0.00    -0.208 NA
BRANCH  16  19
ATOM     19  C   UNL d   1     -26.435  23.888  24.101  0.00  0.00     0.112 C 
ATOM     20  C   UNL d   1     -26.463  25.243  24.809  0.00  0.00     0.054 C 
ATOM     21  C   UNL d   1     -26.707  22.776  25.117  0.00  0.00     0.054 C 
BRANCH  19  22
ATOM     22  O   UNL d   1     -27.439  23.860  23.085  0.00  0.00    -0.383 OA
ATOM     23  H   UNL d   1     -27.348  23.127  22.461  0.00  0.00     0.211 HD
ENDBRANCH  19  22
ENDBRANCH  16  19
ENDBRANCH   6  13
BRANCH   3  24
ATOM     24  C   UNL d   1     -20.171  26.511  26.608  0.00  0.00     0.013 C 
ATOM     25  C   UNL d   1     -19.323  26.551  27.880  0.00  0.00     0.015 C 
ATOM     26  C   UNL d   1     -20.864  27.861  26.414  0.00  0.00     0.015 C 
ENDBRANCH   3  24
BRANCH   1  27
ATOM     27  C   UNL d   1     -15.841  26.870  24.439  0.00  0.00     0.108 A 
ATOM     28  C   UNL d   1     -15.347  28.052  23.867  0.00  0.00     0.081 A 
ATOM     29  C   UNL d   1     -16.146  29.047  23.065  0.00  0.00     0.075 C 
ATOM     30  N   UNL d   1     -14.074  28.143  24.153  0.00  0.00    -0.176 NA
ATOM     31  N   UNL d   1     -13.709  27.021  24.907  0.00  0.00    -0.265 N 
ATOM     32  H   UNL d   1     -12.822  26.830  25.251  0.00  0.00     0.190 HD
ATOM     33  C   UNL d   1     -14.808  26.252  25.072  0.00  0.00     0.149 A 
ATOM     34 CL   UNL d   1     -14.887  24.749  25.935  0.00  0.00    -0.060 Cl
ENDBRANCH   1  27
TORSDOF 5
ENDMDL
