MODEL 1
REMARK VINA RESULT:     -11.0      0.000      0.000
REMARK  5 active torsions:
REMARK  status: ('A' for Active; 'I' for Inactive)
REMARK    1  A    between atoms: C_5  and  N_6 
REMARK    2  A    between atoms: N_6  and  C_7 
REMARK    3  A    between atoms: C_10  and  C_11 
REMARK    4  A    between atoms: C_21  and  C_22 
REMARK    5  A    between atoms: C_22  and  O_24 
ROOT
ATOM      1  C   UNL d   1     -27.160  22.586  23.724  0.00  0.00     0.050 A 
ATOM      2  C   UNL d   1     -26.517  23.754  24.119  0.00  0.00     0.146 A 
ATOM      3  N   UNL d   1     -25.374  24.112  23.572  0.00  0.00    -0.258 NA
ATOM      4  C   UNL d   1     -24.792  23.381  22.631  0.00  0.00     0.072 A 
ATOM      5  C   UNL d   1     -25.378  22.197  22.184  0.00  0.00    -0.030 A 
ATOM      6  C   UNL d   1     -24.712  21.372  21.114  0.00  0.00     0.050 C 
ATOM      7  C   UNL d   1     -26.581  21.794  22.733  0.00  0.00     0.040 A 
ENDROOT
BRANCH   1   8
ATOM      8  N   UNL d   1     -28.372  22.214  24.309  0.00  0.00    -0.354 N 
ATOM      9  H   UNL d   1     -28.408  22.003  25.255  0.00  0.00     0.166 HD
BRANCH   8  10
ATOM     10  C   UNL d   1     -29.524  22.148  23.537  0.00  0.00     0.049 A 
ATOM     11  C   UNL d   1     -29.486  22.503  22.194  0.00  0.00     0.031 A 
ATOM     12  C   UNL d   1     -30.631  22.430  21.427  0.00  0.00     0.009 A 
ATOM     13  C   UNL d   1     -31.828  22.014  21.990  0.00  0.00    -0.061 A 
ATOM     14  C   UNL d   1     -33.071  21.947  21.141  0.00  0.00     0.048 C 
ATOM     15  C   UNL d   1     -31.886  21.664  23.320  0.00  0.00     0.027 A 
ATOM     16  C   UNL d   1     -30.734  21.727  24.110  0.00  0.00     0.064 A 
BRANCH  16  17
ATOM     17  C   UNL d   1     -30.790  21.353  25.533  0.00  0.00     0.178 C 
ATOM     18  O   UNL d   1     -31.681  21.782  26.240  0.00  0.00    -0.646 OA
BRANCH  17  19
ATOM     19  O   UNL d   1     -29.855  20.533  26.053  0.00  0.00    -0.773 OA
ATOM     20  H   UNL d   1     -29.827  19.628  25.714  0.00  0.00     0.167 HD
ENDBRANCH  17  19
ENDBRANCH  16  17
ENDBRANCH   8  10
ENDBRANCH   1   8
BRANCH   4  21
ATOM     21  C   UNL d   1     -23.504  23.826  22.046  0.00  0.00    -0.005 A 
ATOM     22  C   UNL d   1     -22.368  23.923  22.848  0.00  0.00     0.037 A 
ATOM     23  C   UNL d   1     -21.171  24.337  22.297  0.00  0.00     0.035 A 
ATOM     24  C   UNL d   1     -21.099  24.656  20.952  0.00  0.00     0.024 A 
ATOM     25 CL   UNL d   1     -19.755  24.460  23.294  0.00  0.00    -0.084 Cl
ATOM     26  C   UNL d   1     -22.223  24.561  20.152  0.00  0.00     0.003 A 
ATOM     27  C   UNL d   1     -23.423  24.143  20.691  0.00  0.00     0.014 A 
ENDBRANCH   4  21
TORSDOF 5
ENDMDL
