MODEL 1
REMARK VINA RESULT:      -8.6      0.000      0.000
REMARK  6 active torsions:
REMARK  status: ('A' for Active; 'I' for Inactive)
REMARK    1  A    between atoms: C_2  and  O_3 
REMARK    2  A    between atoms: O_3  and  C_4 
REMARK    3  A    between atoms: N_6  and  C_7 
REMARK    4  A    between atoms: C_10  and  C_11 
REMARK    5  A    between atoms: C_17  and  O_18 
REMARK    6  A    between atoms: O_18  and  C_19 
ROOT
ATOM      1  C   UNL d   1     -25.360  23.903  23.543  0.00  0.00     0.221 A 
ATOM      2  N   UNL d   1     -26.657  23.971  23.710  0.00  0.00    -0.124 NA
ATOM      3  N   UNL d   1     -27.249  22.923  22.995  0.00  0.00    -0.059 N 
ATOM      4  C   UNL d   1     -26.254  22.218  22.384  0.00  0.00     0.089 A 
ATOM      5  C   UNL d   1     -26.431  21.007  21.503  0.00  0.00     0.074 C 
ATOM      6  C   UNL d   1     -25.078  22.802  22.712  0.00  0.00     0.155 A 
ENDROOT
BRANCH   3   7
ATOM      7  C   UNL d   1     -28.613  22.650  22.917  0.00  0.00     0.749 A 
ATOM      8  N   UNL d   1     -29.222  22.729  21.745  0.00  0.00    -0.073 NA
ATOM      9  C   UNL d   1     -30.516  22.476  21.637  0.00  0.00     0.145 A 
ATOM     10  C   UNL d   1     -31.233  22.125  22.769  0.00  0.00    -0.022 A 
ATOM     11  C   UNL d   1     -30.564  22.053  23.981  0.00  0.00     0.145 A 
ATOM     12  N   UNL d   1     -29.268  22.313  24.018  0.00  0.00    -0.073 NA
BRANCH  10  13
ATOM     13  C   UNL d   1     -32.709  21.830  22.685  0.00  0.00     0.037 C 
ATOM     14  C   UNL d   1     -33.129  21.746  21.216  0.00  0.00     0.010 C 
ENDBRANCH  10  13
ENDBRANCH   3   7
BRANCH   1  15
ATOM     15  O   UNL d   1     -24.442  24.750  24.082  0.00  0.00    -0.331 OA
BRANCH  15  16
ATOM     16  C   UNL d   1     -24.575  26.137  23.764  0.00  0.00     0.173 C 
ATOM     17  C   UNL d   1     -23.186  26.763  23.619  0.00  0.00     0.034 C 
ENDBRANCH  15  16
ENDBRANCH   1  15
BRANCH   6  18
ATOM     18  O   UNL d   1     -23.841  22.400  22.305  0.00  0.00    -0.303 OA
BRANCH  18  19
ATOM     19  C   UNL d   1     -23.104  23.262  21.557  0.00  0.00     0.093 A 
ATOM     20  C   UNL d   1     -21.928  23.794  22.068  0.00  0.00     0.044 A 
ATOM     21  C   UNL d   1     -21.184  24.676  21.306  0.00  0.00     0.022 A 
ATOM     22 BR   UNL d   1     -21.349  23.321  23.804  0.00  0.00    -0.048 Br
ATOM     23  C   UNL d   1     -21.604  25.018  20.034  0.00  0.00     0.002 A 
ATOM     24  C   UNL d   1     -22.773  24.485  19.522  0.00  0.00     0.003 A 
ATOM     25  C   UNL d   1     -23.523  23.608  20.280  0.00  0.00     0.039 A 
ENDBRANCH  18  19
ENDBRANCH   6  18
TORSDOF 6
ENDMDL
