MODEL 1
REMARK VINA RESULT:     -11.9      0.000      0.000
REMARK  9 active torsions:
REMARK  status: ('A' for Active; 'I' for Inactive)
REMARK    1  A    between atoms: O_2  and  C_3 
REMARK    2  A    between atoms: C_5  and  C_6 
REMARK    3  A    between atoms: C_8  and  C_9 
REMARK    4  A    between atoms: C_9  and  O_11 
REMARK    5  A    between atoms: C_21  and  O_22 
REMARK    6  A    between atoms: O_22  and  C_23 
REMARK    7  A    between atoms: C_23  and  C_24 
REMARK       I    between atoms: C_24  and  N_26 
REMARK    8  A    between atoms: N_26  and  C_27 
REMARK    9  A    between atoms: C_32  and  C_33 
ROOT
ATOM      1  C   UNL d   1     -25.128  22.077  21.604  0.00  0.00     0.102 A 
ATOM      2  C   UNL d   1     -26.478  21.839  21.787  0.00  0.00     0.053 A 
ATOM      3  C   UNL d   1     -27.143  22.405  22.874  0.00  0.00    -0.004 A 
ATOM      4  C   UNL d   1     -26.444  23.204  23.778  0.00  0.00     0.017 A 
ATOM      5  C   UNL d   1     -25.096  23.435  23.595  0.00  0.00     0.040 A 
ATOM      6  C   UNL d   1     -24.433  22.873  22.513  0.00  0.00     0.102 A 
ENDROOT
BRANCH   6   7
ATOM      7  O   UNL d   1     -23.105  23.103  22.336  0.00  0.00    -0.339 OA
BRANCH   7   8
ATOM      8  C   UNL d   1     -22.743  24.282  21.614  0.00  0.00     0.278 C 
BRANCH   8   9
ATOM      9  C   UNL d   1     -21.625  24.989  22.336  0.00  0.00     0.246 C 
ATOM     10  O   UNL d   1     -20.777  25.585  21.705  0.00  0.00    -0.271 OA
ATOM     11  N   UNL d   1     -21.569  24.963  23.682  0.00  0.00    -0.325 N 
ATOM     12  H   UNL d   1     -22.280  24.542  24.189  0.00  0.00     0.169 HD
BRANCH  11  13
ATOM     13  C   UNL d   1     -20.485  25.545  24.349  0.00  0.00     0.049 A 
ATOM     14  C   UNL d   1     -20.654  26.736  25.044  0.00  0.00     0.074 A 
ATOM     15  C   UNL d   1     -19.582  27.308  25.701  0.00  0.00     0.018 A 
ATOM     16  C   UNL d   1     -18.342  26.697  25.669  0.00  0.00     0.001 A 
ATOM     17  C   UNL d   1     -18.171  25.512  24.976  0.00  0.00     0.002 A 
ATOM     18  C   UNL d   1     -19.240  24.932  24.323  0.00  0.00     0.030 A 
BRANCH  14  19
ATOM     19  C   UNL d   1     -22.005  27.402  25.082  0.00  0.00     0.419 C 
ATOM     20  F   UNL d   1     -22.913  26.578  25.757  0.00  0.00    -0.166 F 
ATOM     21  F   UNL d   1     -21.903  28.628  25.750  0.00  0.00    -0.166 F 
ATOM     22  F   UNL d   1     -22.455  27.620  23.776  0.00  0.00    -0.166 F 
ENDBRANCH  14  19
ENDBRANCH  11  13
ENDBRANCH   8   9
ENDBRANCH   7   8
ENDBRANCH   6   7
BRANCH   1  23
ATOM     23  O   UNL d   1     -24.478  21.532  20.542  0.00  0.00    -0.353 OA
ATOM     24  C   UNL d   1     -24.529  22.254  19.310  0.00  0.00     0.210 C 
ENDBRANCH   1  23
BRANCH   3  25
ATOM     25  C   UNL d   1     -28.591  22.156  23.069  0.00  0.00     0.069 A 
ATOM     26  N   UNL d   1     -29.401  22.271  22.037  0.00  0.00    -0.247 NA
ATOM     27  C   UNL d   1     -30.714  22.058  22.134  0.00  0.00     0.068 A 
ATOM     28  C   UNL d   1     -31.285  21.705  23.382  0.00  0.00     0.010 A 
ATOM     29  C   UNL d   1     -31.554  22.182  21.012  0.00  0.00     0.032 A 
ATOM     30  C   UNL d   1     -30.406  21.577  24.545  0.00  0.00     0.052 A 
ATOM     31  C   UNL d   1     -32.663  21.489  23.480  0.00  0.00     0.015 A 
ATOM     32  C   UNL d   1     -29.052  21.813  24.349  0.00  0.00     0.051 A 
ATOM     33  C   UNL d   1     -33.447  21.618  22.371  0.00  0.00     0.001 A 
ATOM     34  C   UNL d   1     -32.891  21.964  21.141  0.00  0.00     0.002 A 
BRANCH  30  35
ATOM     35  C   UNL d   1     -30.938  21.212  25.874  0.00  0.00     0.177 C 
ATOM     36  O   UNL d   1     -31.692  21.967  26.455  0.00  0.00    -0.646 OA
BRANCH  35  37
ATOM     37  O   UNL d   1     -30.586  20.043  26.443  0.00  0.00    -0.773 OA
ATOM     38  H   UNL d   1     -30.281  19.341  25.852  0.00  0.00     0.167 HD
ENDBRANCH  35  37
ENDBRANCH  30  35
ENDBRANCH   3  25
TORSDOF 9
ENDMDL
