MODEL 1
REMARK VINA RESULT:     -10.8      0.000      0.000
REMARK  6 active torsions:
REMARK  status: ('A' for Active; 'I' for Inactive)
REMARK    1  A    between atoms: O_2  and  C_3 
REMARK    2  A    between atoms: C_6  and  C_7 
REMARK       I    between atoms: C_7  and  N_9 
REMARK    3  A    between atoms: N_9  and  C_10 
REMARK    4  A    between atoms: C_10  and  C_11 
REMARK    5  A    between atoms: C_11  and  C_12 
REMARK       I    between atoms: C_12  and  N_14 
REMARK    6  A    between atoms: N_14  and  C_15 
ROOT
ATOM      1  C   UNL d   1     -24.522  22.302  20.168  0.00  0.00     0.122 C 
ENDROOT
BRANCH   1   2
ATOM      2  C   UNL d   1     -24.657  21.528  21.482  0.00  0.00     0.132 C 
BRANCH   2   3
ATOM      3  N   UNL d   1     -26.072  21.427  21.846  0.00  0.00    -0.356 N 
ATOM      4  C   UNL d   1     -26.598  22.281  22.746  0.00  0.00     0.251 C 
ATOM      5  O   UNL d   1     -25.899  23.135  23.255  0.00  0.00    -0.268 OA
ATOM      6  H   UNL d   1     -26.630  20.745  21.440  0.00  0.00     0.162 HD
BRANCH   4   7
ATOM      7  C   UNL d   1     -28.025  22.179  23.113  0.00  0.00     0.032 A 
ATOM      8  C   UNL d   1     -29.013  22.489  22.174  0.00  0.00     0.020 A 
ATOM      9  C   UNL d   1     -30.342  22.394  22.520  0.00  0.00     0.038 A 
ATOM     10  C   UNL d   1     -30.702  21.991  23.800  0.00  0.00     0.068 A 
ATOM     11  C   UNL d   1     -29.722  21.682  24.736  0.00  0.00     0.038 A 
ATOM     12  C   UNL d   1     -28.391  21.769  24.397  0.00  0.00     0.020 A 
BRANCH  10  13
ATOM     13  O   UNL d   1     -32.013  21.898  24.136  0.00  0.00    -0.356 OA
ATOM     14  C   UNL d   1     -32.887  21.294  23.180  0.00  0.00     0.210 C 
ENDBRANCH  10  13
ENDBRANCH   4   7
ENDBRANCH   2   3
ENDBRANCH   1   2
BRANCH   1  15
ATOM     15  C   UNL d   1     -23.354  23.248  20.258  0.00  0.00     0.219 C 
ATOM     16  O   UNL d   1     -22.938  23.795  19.259  0.00  0.00    -0.274 OA
ATOM     17  N   UNL d   1     -22.771  23.487  21.450  0.00  0.00    -0.352 N 
ATOM     18  H   UNL d   1     -23.104  23.050  22.249  0.00  0.00     0.163 HD
BRANCH  17  19
ATOM     19  C   UNL d   1     -21.635  24.407  21.538  0.00  0.00     0.118 C 
ATOM     20  C   UNL d   1     -21.891  25.411  22.631  0.00  0.00    -0.029 A 
ATOM     21  C   UNL d   1     -20.916  25.806  23.518  0.00  0.00    -0.050 A 
ATOM     22  C   UNL d   1     -23.169  25.947  22.731  0.00  0.00     0.010 A 
ATOM     23  C   UNL d   1     -19.513  25.258  23.480  0.00  0.00     0.039 C 
ATOM     24  C   UNL d   1     -21.216  26.743  24.499  0.00  0.00     0.007 A 
ATOM     25  C   UNL d   1     -19.231  24.601  22.129  0.00  0.00     0.007 C 
ATOM     26  C   UNL d   1     -20.363  23.612  21.827  0.00  0.00     0.030 C 
ATOM     27  C   UNL d   1     -22.485  27.275  24.595  0.00  0.00     0.001 A 
ATOM     28  C   UNL d   1     -23.467  26.875  23.707  0.00  0.00     0.001 A 
ENDBRANCH  17  19
ENDBRANCH   1  15
TORSDOF 6
ENDMDL
