MODEL 1
REMARK VINA RESULT:     -10.2      0.000      0.000
REMARK  7 active torsions:
REMARK  status: ('A' for Active; 'I' for Inactive)
REMARK    1  A    between atoms: O_2  and  C_3 
REMARK    2  A    between atoms: C_9  and  N_10 
REMARK       I    between atoms: N_10  and  C_11 
REMARK    3  A    between atoms: C_11  and  C_13 
REMARK    4  A    between atoms: C_17  and  N_18 
REMARK    5  A    between atoms: C_29  and  O_30 
REMARK    6  A    between atoms: O_30  and  C_31 
REMARK    7  A    between atoms: C_31  and  C_33 
ROOT
ATOM      1  C   UNL d   1     -24.184  24.638  23.630  0.00  0.00     0.068 A 
ATOM      2  C   UNL d   1     -25.091  25.153  24.563  0.00  0.00     0.064 A 
ATOM      3  C   UNL d   1     -26.337  24.584  24.696  0.00  0.00     0.146 A 
ATOM      4  F   UNL d   1     -27.214  25.085  25.595  0.00  0.00    -0.204 F 
ATOM      5  C   UNL d   1     -26.695  23.487  23.913  0.00  0.00     0.104 A 
ATOM      6  C   UNL d   1     -25.800  22.967  22.989  0.00  0.00     0.073 A 
ATOM      7  C   UNL d   1     -24.546  23.535  22.842  0.00  0.00     0.087 A 
ENDROOT
BRANCH   1   8
ATOM      8  C   UNL d   1     -22.852  25.247  23.479  0.00  0.00     0.259 C 
ATOM      9  N   UNL d   1     -21.784  24.688  24.085  0.00  0.00    -0.319 N 
ATOM     10  H   UNL d   1     -21.885  23.860  24.579  0.00  0.00     0.169 HD
ATOM     11  O   UNL d   1     -22.714  26.253  22.810  0.00  0.00    -0.267 OA
BRANCH   9  12
ATOM     12  C   UNL d   1     -20.529  25.304  23.999  0.00  0.00     0.094 A 
ATOM     13  C   UNL d   1     -20.155  26.281  24.922  0.00  0.00     0.191 A 
ATOM     14  N   UNL d   1     -18.973  26.866  24.840  0.00  0.00    -0.235 NA
ATOM     15  C   UNL d   1     -18.107  26.550  23.896  0.00  0.00     0.120 A 
ATOM     16  C   UNL d   1     -18.405  25.588  22.951  0.00  0.00     0.028 A 
ATOM     17  C   UNL d   1     -19.635  24.946  22.997  0.00  0.00    -0.029 A 
ATOM     18  C   UNL d   1     -19.994  23.893  21.982  0.00  0.00     0.050 C 
BRANCH  13  19
ATOM     19  O   UNL d   1     -21.016  26.638  25.910  0.00  0.00    -0.338 OA
ATOM     20  C   UNL d   1     -21.596  27.942  25.824  0.00  0.00     0.211 C 
ENDBRANCH  13  19
ENDBRANCH   9  12
ENDBRANCH   1   8
BRANCH   7  21
ATOM     21  O   UNL d   1     -23.670  23.026  21.939  0.00  0.00    -0.336 OA
BRANCH  21  22
ATOM     22  C   UNL d   1     -23.948  23.268  20.558  0.00  0.00     0.232 C 
ATOM     23  C   UNL d   1     -22.659  23.675  19.843  0.00  0.00     0.049 C 
BRANCH  22  24
ATOM     24  C   UNL d   1     -24.506  21.995  19.920  0.00  0.00     0.413 C 
ATOM     25  F   UNL d   1     -23.910  21.798  18.670  0.00  0.00    -0.168 F 
ATOM     26  F   UNL d   1     -24.232  20.900  20.746  0.00  0.00    -0.168 F 
ATOM     27  F   UNL d   1     -25.892  22.123  19.760  0.00  0.00    -0.168 F 
ENDBRANCH  22  24
ENDBRANCH  21  22
ENDBRANCH   7  21
BRANCH   5  28
ATOM     28  N   UNL d   1     -27.959  22.911  24.057  0.00  0.00    -0.178 N 
ATOM     29  C   UNL d   1     -28.368  22.122  25.076  0.00  0.00     0.351 A 
ATOM     30  N   UNL d   1     -29.650  21.808  24.848  0.00  0.00    -0.280 N 
ATOM     31  O   UNL d   1     -27.695  21.763  26.025  0.00  0.00    -0.244 OA
ATOM     32  C   UNL d   1     -30.031  22.377  23.646  0.00  0.00     0.155 A 
ATOM     33  C   UNL d   1     -30.564  21.019  25.682  0.00  0.00     0.161 C 
ATOM     34  N   UNL d   1     -29.039  23.040  23.168  0.00  0.00    -0.147 NA
ATOM     35  C   UNL d   1     -31.410  22.189  23.056  0.00  0.00     0.248 C 
ATOM     36  O   UNL d   1     -32.267  21.707  24.102  0.00  0.00    -0.382 OA
ATOM     37  C   UNL d   1     -31.742  20.576  24.803  0.00  0.00     0.188 C 
ENDBRANCH   5  28
TORSDOF 7
ENDMDL
