MODEL 1
REMARK VINA RESULT:      -9.4      0.000      0.000
REMARK  9 active torsions:
REMARK  status: ('A' for Active; 'I' for Inactive)
REMARK    1  A    between atoms: O_2  and  C_3 
REMARK    2  A    between atoms: C_3  and  C_5 
REMARK    3  A    between atoms: C_8  and  C_9 
REMARK    4  A    between atoms: C_9  and  C_10 
REMARK    5  A    between atoms: C_10  and  C_11 
REMARK    6  A    between atoms: C_11  and  C_12 
REMARK    7  A    between atoms: C_12  and  C_13 
REMARK    8  A    between atoms: CA_14  and  C_15 
REMARK    9  A    between atoms: C_15  and  OXT_17 
ROOT
ATOM      1  C   UNL d   1     -30.759  22.016  23.188  0.00  0.00     0.044 A 
ATOM      2  CA  UNL d   1     -31.508  21.403  24.141  0.00  0.00     0.122 A 
ATOM      3  N   UNL d   1     -32.760  20.925  23.815  0.00  0.00    -0.302 N 
ATOM      4  H   UNL d   1     -33.297  20.491  24.496  0.00  0.00     0.171 HD
ATOM      5  C   UNL d   1     -33.247  21.046  22.568  0.00  0.00     0.327 A 
ATOM      6  O   UNL d   1     -34.354  20.606  22.320  0.00  0.00    -0.247 OA
ATOM      7  N   UNL d   1     -32.543  21.639  21.588  0.00  0.00    -0.275 N 
ATOM      8  H   UNL d   1     -32.923  21.710  20.698  0.00  0.00     0.173 HD
ATOM      9  C   UNL d   1     -31.313  22.136  21.834  0.00  0.00     0.258 A 
ATOM     10  O   UNL d   1     -30.675  22.674  20.948  0.00  0.00    -0.267 OA
ENDROOT
BRANCH   1  11
ATOM     11  C   UNL d   1     -29.390  22.556  23.511  0.00  0.00     0.047 C 
BRANCH  11  12
ATOM     12  C   UNL d   1     -28.330  21.523  23.121  0.00  0.00     0.005 C 
BRANCH  12  13
ATOM     13  C   UNL d   1     -27.638  21.966  21.830  0.00  0.00     0.005 C 
BRANCH  13  14
ATOM     14  C   UNL d   1     -26.344  21.170  21.647  0.00  0.00     0.038 C 
BRANCH  14  15
ATOM     15  C   UNL d   1     -25.215  22.114  21.321  0.00  0.00    -0.058 A 
ATOM     16  C   UNL d   1     -24.616  22.846  22.332  0.00  0.00     0.008 A 
ATOM     17  C   UNL d   1     -23.583  23.711  22.041  0.00  0.00     0.018 A 
ATOM     18  C   UNL d   1     -23.141  23.849  20.724  0.00  0.00     0.039 A 
ATOM     19  C   UNL d   1     -23.750  23.107  19.709  0.00  0.00     0.018 A 
ATOM     20  C   UNL d   1     -24.779  22.241  20.015  0.00  0.00     0.008 A 
BRANCH  18  21
ATOM     21  C   UNL d   1     -22.034  24.773  20.405  0.00  0.00     0.292 C 
ATOM     22  O   UNL d   1     -21.936  25.242  19.289  0.00  0.00    -0.259 OA
BRANCH  21  23
ATOM     23  O   UNL d   1     -21.131  25.096  21.352  0.00  0.00    -0.323 OA
ATOM     24  C   UNL d   1     -20.037  24.165  21.566  0.00  0.00     0.213 C 
ENDBRANCH  21  23
ENDBRANCH  18  21
ENDBRANCH  14  15
ENDBRANCH  13  14
ENDBRANCH  12  13
ENDBRANCH  11  12
ENDBRANCH   1  11
BRANCH   2  25
ATOM     25  C   UNL d   1     -30.987  21.254  25.521  0.00  0.00     0.194 C 
ATOM     26  O   UNL d   1     -31.279  22.070  26.370  0.00  0.00    -0.645 OA
BRANCH  25  27
ATOM     27  OXT UNL d   1     -30.191  20.213  25.831  0.00  0.00    -0.772 OA
ATOM     28  HXT UNL d   1     -29.237  20.351  25.750  0.00  0.00     0.167 HD
ENDBRANCH  25  27
ENDBRANCH   2  25
TORSDOF 9
ENDMDL
