MODEL 1
REMARK VINA RESULT:     -10.2      0.000      0.000
REMARK  9 active torsions:
REMARK  status: ('A' for Active; 'I' for Inactive)
REMARK    1  A    between atoms: C_2  and  N_3 
REMARK    2  A    between atoms: C_4  and  C_5 
REMARK    3  A    between atoms: C_5  and  O_7 
REMARK    4  A    between atoms: N_9  and  C_10 
REMARK    5  A    between atoms: C_13  and  C_14 
REMARK       I    between atoms: C_14  and  N_16 
REMARK    6  A    between atoms: N_16  and  C_17 
REMARK    7  A    between atoms: C_25  and  O_26 
REMARK    8  A    between atoms: O_26  and  C_27 
REMARK    9  A    between atoms: C_27  and  C_29 
ROOT
ATOM      1  C   UNL d   1     -26.954  23.473  23.663  0.00  0.00     0.105 A 
ATOM      2  C   UNL d   1     -26.686  24.607  24.426  0.00  0.00     0.036 A 
ATOM      3  C   UNL d   1     -25.441  25.193  24.381  0.00  0.00     0.022 A 
ATOM      4  C   UNL d   1     -24.445  24.657  23.559  0.00  0.00     0.069 A 
ATOM      5  C   UNL d   1     -24.715  23.515  22.790  0.00  0.00     0.126 A 
ATOM      6  C   UNL d   1     -25.969  22.929  22.847  0.00  0.00     0.179 A 
ATOM      7  F   UNL d   1     -26.236  21.830  22.108  0.00  0.00    -0.201 F 
ENDROOT
BRANCH   1   8
ATOM      8  N   UNL d   1     -28.219  22.881  23.718  0.00  0.00    -0.177 N 
ATOM      9  N   UNL d   1     -29.269  23.084  22.812  0.00  0.00    -0.137 NA
ATOM     10  C   UNL d   1     -30.283  22.358  23.199  0.00  0.00     0.228 A 
ATOM     11  N   UNL d   1     -29.920  21.676  24.348  0.00  0.00    -0.276 N 
ATOM     12  C   UNL d   1     -28.647  22.005  24.650  0.00  0.00     0.351 A 
ATOM     13  O   UNL d   1     -28.003  21.588  25.594  0.00  0.00    -0.244 OA
BRANCH  10  14
ATOM     14  C   UNL d   1     -31.591  22.277  22.526  0.00  0.00     0.215 C 
ATOM     15  O   UNL d   1     -31.654  21.951  21.358  0.00  0.00    -0.644 OA
BRANCH  14  16
ATOM     16  O   UNL d   1     -32.717  22.565  23.208  0.00  0.00    -0.770 OA
ATOM     17  H   UNL d   1     -33.449  21.937  23.130  0.00  0.00     0.168 HD
ENDBRANCH  14  16
ENDBRANCH  10  14
BRANCH  11  18
ATOM     18  C   UNL d   1     -30.770  20.752  25.104  0.00  0.00     0.131 C 
ATOM     19  C   UNL d   1     -31.577  21.535  26.142  0.00  0.00     0.027 C 
ENDBRANCH  11  18
ENDBRANCH   1   8
BRANCH   5  20
ATOM     20  O   UNL d   1     -23.751  22.987  21.994  0.00  0.00    -0.333 OA
BRANCH  20  21
ATOM     21  C   UNL d   1     -23.808  23.313  20.604  0.00  0.00     0.232 C 
ATOM     22  C   UNL d   1     -22.432  23.786  20.134  0.00  0.00     0.049 C 
BRANCH  21  23
ATOM     23  C   UNL d   1     -24.223  22.075  19.807  0.00  0.00     0.413 C 
ATOM     24  F   UNL d   1     -23.380  21.929  18.700  0.00  0.00    -0.168 F 
ATOM     25  F   UNL d   1     -24.123  20.942  20.621  0.00  0.00    -0.168 F 
ATOM     26  F   UNL d   1     -25.544  22.222  19.371  0.00  0.00    -0.168 F 
ENDBRANCH  21  23
ENDBRANCH  20  21
ENDBRANCH   5  20
BRANCH   4  27
ATOM     27  C   UNL d   1     -23.114  25.286  23.505  0.00  0.00     0.259 C 
ATOM     28  O   UNL d   1     -22.943  26.295  22.848  0.00  0.00    -0.267 OA
ATOM     29  N   UNL d   1     -22.084  24.743  24.185  0.00  0.00    -0.319 N 
ATOM     30  H   UNL d   1     -22.231  23.967  24.748  0.00  0.00     0.169 HD
BRANCH  29  31
ATOM     31  C   UNL d   1     -20.806  25.304  24.085  0.00  0.00     0.096 A 
ATOM     32  C   UNL d   1     -20.436  26.351  24.920  0.00  0.00     0.064 A 
ATOM     33  C   UNL d   1     -19.172  26.900  24.820  0.00  0.00     0.026 A 
ATOM     34 CL   UNL d   1     -21.560  26.963  26.092  0.00  0.00    -0.082 Cl
ATOM     35  C   UNL d   1     -18.278  26.416  23.884  0.00  0.00     0.005 A 
ATOM     36  C   UNL d   1     -18.642  25.378  23.045  0.00  0.00     0.045 A 
ATOM     37  C   UNL d   1     -19.904  24.820  23.143  0.00  0.00     0.144 A 
ATOM     38  F   UNL d   1     -20.260  23.806  22.324  0.00  0.00    -0.204 F 
ENDBRANCH  29  31
ENDBRANCH   4  27
TORSDOF 9
ENDMDL
