MODEL 1
REMARK VINA RESULT:      -9.4      0.000      0.000
REMARK  6 active torsions:
REMARK  status: ('A' for Active; 'I' for Inactive)
REMARK    1  A    between atoms: C_2  and  N_3 
REMARK    2  A    between atoms: C_4  and  C_5 
REMARK    3  A    between atoms: C_5  and  O_6 
REMARK    4  A    between atoms: N_8  and  C_9 
REMARK    5  A    between atoms: C_12  and  C_13 
REMARK    6  A    between atoms: N_17  and  C_18 
ROOT
ATOM      1  C   UNL d   1     -28.534  22.183  22.287  0.00  0.00     0.195 A 
ATOM      2  N   UNL d   1     -27.825  23.066  22.970  0.00  0.00    -0.225 NA
ATOM      3  C   UNL d   1     -26.539  23.266  22.706  0.00  0.00     0.083 A 
ATOM      4  C   UNL d   1     -25.740  24.239  23.455  0.00  0.00    -0.009 A 
ATOM      5  C   UNL d   1     -24.441  24.399  23.154  0.00  0.00     0.110 A 
ATOM      6  N   UNL d   1     -23.826  23.692  22.162  0.00  0.00    -0.284 N 
ATOM      7  C   UNL d   1     -24.481  22.775  21.421  0.00  0.00     0.265 A 
ATOM      8  O   UNL d   1     -23.899  22.160  20.546  0.00  0.00    -0.267 OA
ATOM      9  C   UNL d   1     -25.901  22.528  21.682  0.00  0.00     0.065 A 
ATOM     10  C   UNL d   1     -26.638  21.591  20.950  0.00  0.00     0.066 A 
ATOM     11  C   UNL d   1     -27.962  21.424  21.261  0.00  0.00     0.165 A 
ATOM     12  F   UNL d   1     -28.711  20.530  20.582  0.00  0.00    -0.202 F 
ENDROOT
BRANCH   1  13
ATOM     13  N   UNL d   1     -29.880  22.007  22.595  0.00  0.00    -0.159 N 
ATOM     14  N   UNL d   1     -30.404  21.625  23.839  0.00  0.00    -0.145 NA
ATOM     15  C   UNL d   1     -31.693  21.574  23.734  0.00  0.00     0.154 A 
ATOM     16  N   UNL d   1     -32.046  21.901  22.448  0.00  0.00    -0.283 N 
ATOM     17  C   UNL d   1     -30.922  22.167  21.753  0.00  0.00     0.352 A 
ATOM     18  O   UNL d   1     -30.859  22.491  20.581  0.00  0.00    -0.244 OA
BRANCH  15  19
ATOM     19  C   UNL d   1     -32.649  21.206  24.839  0.00  0.00     0.244 C 
BRANCH  19  20
ATOM     20  O   UNL d   1     -31.985  21.320  26.100  0.00  0.00    -0.393 OA
ATOM     21  H   UNL d   1     -31.152  21.809  26.063  0.00  0.00     0.209 HD
ENDBRANCH  19  20
ENDBRANCH  15  19
BRANCH  16  22
ATOM     22  C   UNL d   1     -33.412  21.952  21.920  0.00  0.00     0.131 C 
ATOM     23  C   UNL d   1     -33.855  20.545  21.514  0.00  0.00     0.027 C 
ENDBRANCH  16  22
ENDBRANCH   1  13
BRANCH   4  24
ATOM     24  C   UNL d   1     -26.370  25.051  24.557  0.00  0.00     0.014 C 
ATOM     25  C   UNL d   1     -26.702  24.136  25.738  0.00  0.00     0.015 C 
ATOM     26  C   UNL d   1     -25.394  26.137  25.012  0.00  0.00     0.015 C 
ENDBRANCH   4  24
BRANCH   6  27
ATOM     27  C   UNL d   1     -22.468  23.923  21.907  0.00  0.00     0.102 A 
ATOM     28  C   UNL d   1     -21.501  23.401  22.757  0.00  0.00     0.064 A 
ATOM     29  C   UNL d   1     -20.162  23.630  22.503  0.00  0.00     0.026 A 
ATOM     30 CL   UNL d   1     -21.974  22.460  24.138  0.00  0.00    -0.082 Cl
ATOM     31  C   UNL d   1     -19.783  24.380  21.404  0.00  0.00     0.005 A 
ATOM     32  C   UNL d   1     -20.741  24.901  20.555  0.00  0.00     0.045 A 
ATOM     33  C   UNL d   1     -22.083  24.680  20.806  0.00  0.00     0.145 A 
ATOM     34  F   UNL d   1     -23.020  25.195  19.980  0.00  0.00    -0.204 F 
ENDBRANCH   6  27
TORSDOF 6
ENDMDL
