MODEL 1
REMARK VINA RESULT:      -9.8      0.000      0.000
REMARK  8 active torsions:
REMARK  status: ('A' for Active; 'I' for Inactive)
REMARK    1  A    between atoms: C_2  and  C_3 
REMARK    2  A    between atoms: C_3  and  C_4 
REMARK    3  A    between atoms: C_4  and  O_6 
REMARK    4  A    between atoms: O_6  and  C_7 
REMARK    5  A    between atoms: C_9  and  N_10 
REMARK    6  A    between atoms: C_23  and  C_24 
REMARK       I    between atoms: C_24  and  N_26 
REMARK    7  A    between atoms: N_26  and  C_27 
REMARK    8  A    between atoms: C_32  and  N_33 
ROOT
ATOM      1  C   UNL d   1     -26.177  23.242  23.354  0.00  0.00     0.087 A 
ATOM      2  C   UNL d   1     -27.550  23.084  23.424  0.00  0.00     0.073 A 
ATOM      3  C   UNL d   1     -28.198  22.244  22.530  0.00  0.00     0.104 A 
ATOM      4  C   UNL d   1     -27.473  21.565  21.550  0.00  0.00     0.146 A 
ATOM      5  F   UNL d   1     -28.111  20.754  20.679  0.00  0.00    -0.204 F 
ATOM      6  C   UNL d   1     -26.107  21.721  21.469  0.00  0.00     0.064 A 
ATOM      7  C   UNL d   1     -25.444  22.562  22.370  0.00  0.00     0.068 A 
ENDROOT
BRANCH   7   8
ATOM      8  C   UNL d   1     -23.984  22.732  22.286  0.00  0.00     0.259 C 
ATOM      9  O   UNL d   1     -23.252  21.768  22.404  0.00  0.00    -0.267 OA
ATOM     10  N   UNL d   1     -23.458  23.956  22.077  0.00  0.00    -0.321 N 
ATOM     11  H   UNL d   1     -24.042  24.710  21.900  0.00  0.00     0.169 HD
BRANCH  10  12
ATOM     12  C   UNL d   1     -22.070  24.137  22.113  0.00  0.00     0.061 A 
ATOM     13  C   UNL d   1     -21.374  24.443  20.943  0.00  0.00     0.054 A 
ATOM     14  C   UNL d   1     -20.000  24.627  20.988  0.00  0.00     0.031 A 
ATOM     15  C   UNL d   1     -19.323  24.496  22.185  0.00  0.00     0.002 A 
ATOM     16  C   UNL d   1     -20.013  24.186  23.344  0.00  0.00     0.002 A 
ATOM     17  C   UNL d   1     -21.383  24.008  23.310  0.00  0.00     0.032 A 
BRANCH  13  18
ATOM     18  N   UNL d   1     -22.061  24.571  19.731  0.00  0.00    -0.392 N 
ATOM     19  C   UNL d   1     -22.764  23.417  19.164  0.00  0.00     0.146 C 
ATOM     20  H   UNL d   1     -22.072  25.423  19.268  0.00  0.00     0.159 HD
ENDBRANCH  13  18
ENDBRANCH  10  12
ENDBRANCH   7   8
BRANCH   1  21
ATOM     21  O   UNL d   1     -25.541  24.059  24.231  0.00  0.00    -0.345 OA
BRANCH  21  22
ATOM     22  C   UNL d   1     -25.884  25.447  24.192  0.00  0.00     0.124 C 
ATOM     23  C   UNL d   1     -26.293  25.910  25.591  0.00  0.00     0.040 C 
BRANCH  22  24
ATOM     24  C   UNL d   1     -24.676  26.258  23.719  0.00  0.00     0.032 C 
BRANCH  24  25
ATOM     25  C   UNL d   1     -23.617  26.286  24.823  0.00  0.00    -0.002 C 
ATOM     26  C   UNL d   1     -22.451  27.177  24.389  0.00  0.00     0.005 C 
ENDBRANCH  24  25
ENDBRANCH  22  24
ENDBRANCH  21  22
ENDBRANCH   1  21
BRANCH   3  27
ATOM     27  N   UNL d   1     -29.583  22.080  22.607  0.00  0.00    -0.178 N 
ATOM     28  C   UNL d   1     -30.285  21.709  23.701  0.00  0.00     0.351 A 
ATOM     29  N   UNL d   1     -31.583  21.700  23.359  0.00  0.00    -0.284 N 
ATOM     30  O   UNL d   1     -29.825  21.433  24.794  0.00  0.00    -0.244 OA
ATOM     31  C   UNL d   1     -31.684  22.031  22.023  0.00  0.00     0.131 A 
ATOM     32  C   UNL d   1     -32.733  21.416  24.226  0.00  0.00     0.135 C 
ATOM     33  N   UNL d   1     -30.502  22.266  21.563  0.00  0.00    -0.149 NA
ATOM     34  C   UNL d   1     -32.991  22.087  21.268  0.00  0.00     0.081 C 
ATOM     35  C   UNL d   1     -34.129  22.175  22.294  0.00  0.00     0.009 C 
ATOM     36  C   UNL d   1     -33.939  21.074  23.344  0.00  0.00     0.021 C 
ENDBRANCH   3  27
TORSDOF 8
ENDMDL
