MODEL 1
REMARK VINA RESULT:     -12.6      0.000      0.000
REMARK  5 active torsions:
REMARK  status: ('A' for Active; 'I' for Inactive)
REMARK    1  A    between atoms: C_3  and  C_4 
REMARK    2  A    between atoms: C_7  and  C_8 
REMARK    3  A    between atoms: C_20  and  C_21 
REMARK    4  A    between atoms: C_27  and  C_28 
REMARK    5  A    between atoms: C_28  and  O_30 
ROOT
ATOM      1  C   UNL d   1     -27.627  22.196  25.768  0.00  0.00     0.052 C 
ATOM      2  C   UNL d   1     -28.476  22.242  24.524  0.00  0.00    -0.015 A 
ATOM      3  C   UNL d   1     -27.949  22.743  23.323  0.00  0.00     0.074 A 
ATOM      4  N   UNL d   1     -28.651  22.797  22.212  0.00  0.00    -0.245 NA
ATOM      5  C   UNL d   1     -29.916  22.384  22.151  0.00  0.00     0.086 A 
ATOM      6  C   UNL d   1     -30.661  22.445  20.959  0.00  0.00     0.149 A 
ATOM      7  N   UNL d   1     -31.906  22.028  20.942  0.00  0.00    -0.254 NA
ATOM      8  C   UNL d   1     -32.516  21.540  22.012  0.00  0.00     0.141 A 
ATOM      9  C   UNL d   1     -31.879  21.438  23.216  0.00  0.00     0.051 A 
ATOM     10  C   UNL d   1     -30.550  21.864  23.309  0.00  0.00     0.014 A 
ATOM     11  C   UNL d   1     -29.791  21.794  24.556  0.00  0.00     0.058 A 
ENDROOT
BRANCH   3  12
ATOM     12  C   UNL d   1     -26.547  23.223  23.306  0.00  0.00    -0.007 A 
ATOM     13  C   UNL d   1     -26.223  24.453  23.877  0.00  0.00     0.014 A 
ATOM     14  C   UNL d   1     -24.919  24.897  23.865  0.00  0.00     0.013 A 
ATOM     15  C   UNL d   1     -23.924  24.120  23.271  0.00  0.00    -0.026 A 
ATOM     16  C   UNL d   1     -24.247  22.891  22.699  0.00  0.00     0.013 A 
ATOM     17  C   UNL d   1     -25.550  22.444  22.716  0.00  0.00     0.014 A 
BRANCH  15  18
ATOM     18  C   UNL d   1     -22.521  24.601  23.254  0.00  0.00    -0.026 A 
ATOM     19  C   UNL d   1     -22.183  25.798  23.883  0.00  0.00     0.012 A 
ATOM     20  C   UNL d   1     -20.876  26.240  23.863  0.00  0.00     0.001 A 
ATOM     21  C   UNL d   1     -19.901  25.497  23.221  0.00  0.00     0.000 A 
ATOM     22  C   UNL d   1     -20.231  24.308  22.595  0.00  0.00     0.001 A 
ATOM     23  C   UNL d   1     -21.533  23.854  22.613  0.00  0.00     0.012 A 
ENDBRANCH  15  18
ENDBRANCH   3  12
BRANCH  11  24
ATOM     24  C   UNL d   1     -30.394  21.263  25.797  0.00  0.00     0.177 C 
ATOM     25  O   UNL d   1     -31.082  21.982  26.493  0.00  0.00    -0.646 OA
BRANCH  24  26
ATOM     26  O   UNL d   1     -30.178  19.983  26.156  0.00  0.00    -0.773 OA
ATOM     27  H   UNL d   1     -29.738  19.834  27.004  0.00  0.00     0.167 HD
ENDBRANCH  24  26
ENDBRANCH  11  24
BRANCH   8  28
ATOM     28  C   UNL d   1     -33.948  21.085  21.898  0.00  0.00     0.434 C 
ATOM     29  F   UNL d   1     -34.353  20.513  23.109  0.00  0.00    -0.165 F 
ATOM     30  F   UNL d   1     -34.764  22.182  21.603  0.00  0.00    -0.165 F 
ATOM     31  F   UNL d   1     -34.055  20.136  20.876  0.00  0.00    -0.165 F 
ENDBRANCH   8  28
TORSDOF 5
ENDMDL
