MODEL 1
REMARK VINA RESULT:     -11.6      0.000      0.000
REMARK  4 active torsions:
REMARK  status: ('A' for Active; 'I' for Inactive)
REMARK    1  A    between atoms: C_2  and  O_3 
REMARK    2  A    between atoms: C_2  and  C_4 
REMARK    3  A    between atoms: C_12  and  C_13 
REMARK    4  A    between atoms: C_16  and  C_17 
ROOT
ATOM      1  C   UNL d   1     -32.563  21.596  22.568  0.00  0.00     0.068 A 
ATOM      2  C   UNL d   1     -33.643  21.118  23.308  0.00  0.00     0.044 A 
ATOM      3  C   UNL d   1     -33.468  20.714  24.616  0.00  0.00     0.035 A 
ATOM      4 CL   UNL d   1     -34.820  20.121  25.529  0.00  0.00    -0.084 Cl
ATOM      5  C   UNL d   1     -32.211  20.782  25.205  0.00  0.00     0.033 A 
ATOM      6  C   UNL d   1     -31.138  21.249  24.490  0.00  0.00    -0.021 A 
ATOM      7  C   UNL d   1     -31.282  21.666  23.163  0.00  0.00     0.080 A 
ATOM      8  N   UNL d   1     -30.088  22.089  22.673  0.00  0.00    -0.251 NA
ATOM      9  C   UNL d   1     -29.108  22.005  23.522  0.00  0.00     0.050 A 
ATOM     10  C   UNL d   1     -29.675  21.450  24.814  0.00  0.00     0.101 A 
ENDROOT
BRANCH   9  11
ATOM     11  C   UNL d   1     -27.710  22.383  23.277  0.00  0.00    -0.011 A 
ATOM     12  C   UNL d   1     -26.995  21.787  22.231  0.00  0.00     0.014 A 
ATOM     13  C   UNL d   1     -25.691  22.146  22.001  0.00  0.00     0.013 A 
ATOM     14  C   UNL d   1     -25.074  23.096  22.815  0.00  0.00    -0.026 A 
ATOM     15  C   UNL d   1     -25.785  23.692  23.859  0.00  0.00     0.013 A 
ATOM     16  C   UNL d   1     -27.090  23.341  24.089  0.00  0.00     0.014 A 
BRANCH  14  17
ATOM     17  C   UNL d   1     -23.663  23.478  22.568  0.00  0.00    -0.026 A 
ATOM     18  C   UNL d   1     -22.727  23.405  23.599  0.00  0.00     0.012 A 
ATOM     19  C   UNL d   1     -21.414  23.758  23.361  0.00  0.00     0.001 A 
ATOM     20  C   UNL d   1     -21.029  24.192  22.106  0.00  0.00     0.000 A 
ATOM     21  C   UNL d   1     -21.953  24.267  21.079  0.00  0.00     0.001 A 
ATOM     22  C   UNL d   1     -23.268  23.913  21.303  0.00  0.00     0.012 A 
ENDBRANCH  14  17
ENDBRANCH   9  11
BRANCH   1  23
ATOM     23  C   UNL d   1     -32.755  22.025  21.172  0.00  0.00     0.178 C 
ATOM     24  O   UNL d   1     -33.869  22.295  20.766  0.00  0.00    -0.646 OA
BRANCH  23  25
ATOM     25  O   UNL d   1     -31.696  22.118  20.344  0.00  0.00    -0.773 OA
ATOM     26  H   UNL d   1     -31.153  22.916  20.412  0.00  0.00     0.167 HD
ENDBRANCH  23  25
ENDBRANCH   1  23
TORSDOF 4
ENDMDL
