MODEL 1
REMARK VINA RESULT:     -10.3      0.000      0.000
REMARK  10 active torsions:
REMARK  status: ('A' for Active; 'I' for Inactive)
REMARK    1  A    between atoms: C_2  and  C_17 
REMARK    2  A    between atoms: C_3  and  C_4 
REMARK    3  A    between atoms: C_4  and  C_5 
REMARK    4  A    between atoms: C_6  and  O_7 
REMARK    5  A    between atoms: C_12  and  C_13 
REMARK    6  A    between atoms: C_15  and  O_16 
REMARK    7  A    between atoms: C_17  and  C_18 
REMARK    8  A    between atoms: C_18  and  C_19 
REMARK    9  A    between atoms: C_20  and  C_22 
REMARK   10  A    between atoms: C_24  and  O_25 
ROOT
ATOM      1  C   UNL d   1     -28.013  21.057  20.332  0.00  0.00     0.043 C 
ATOM      2  C   UNL d   1     -27.586  21.629  21.659  0.00  0.00    -0.087 C 
ATOM      3  C   UNL d   1     -28.320  22.543  22.244  0.00  0.00    -0.020 C 
ENDROOT
BRANCH   2   4
ATOM      4  C   UNL d   1     -26.315  21.151  22.312  0.00  0.00     0.037 C 
BRANCH   4   5
ATOM      5  C   UNL d   1     -25.137  21.379  21.362  0.00  0.00     0.032 C 
BRANCH   5   6
ATOM      6  C   UNL d   1     -24.409  22.637  21.760  0.00  0.00    -0.021 C 
ATOM      7  C   UNL d   1     -23.841  23.382  20.844  0.00  0.00    -0.059 C 
ATOM      8  C   UNL d   1     -24.019  23.049  19.385  0.00  0.00     0.046 C 
BRANCH   7   9
ATOM      9  C   UNL d   1     -23.010  24.572  21.249  0.00  0.00     0.153 C 
ATOM     10  O   UNL d   1     -22.854  24.609  22.677  0.00  0.00    -0.369 OA
ATOM     11  C   UNL d   1     -21.542  25.075  23.013  0.00  0.00     0.080 C 
ATOM     12  C   UNL d   1     -20.780  25.320  21.694  0.00  0.00     0.154 C 
ATOM     13  C   UNL d   1     -20.813  24.018  23.845  0.00  0.00     0.048 C 
ATOM     14  C   UNL d   1     -21.641  26.381  23.805  0.00  0.00     0.048 C 
ATOM     15  C   UNL d   1     -21.572  24.439  20.689  0.00  0.00     0.071 C 
BRANCH  12  16
ATOM     16  O   UNL d   1     -19.426  24.880  21.799  0.00  0.00    -0.392 OA
ATOM     17  H   UNL d   1     -19.128  24.737  22.708  0.00  0.00     0.210 HD
ENDBRANCH  12  16
ENDBRANCH   7   9
ENDBRANCH   5   6
ENDBRANCH   4   5
ENDBRANCH   2   4
BRANCH   3  18
ATOM     18  C   UNL d   1     -29.652  22.930  21.656  0.00  0.00     0.072 C 
BRANCH  18  19
ATOM     19  C   UNL d   1     -30.759  22.283  22.448  0.00  0.00     0.014 A 
ATOM     20  C   UNL d   1     -30.620  22.104  23.813  0.00  0.00     0.088 A 
ATOM     21  C   UNL d   1     -31.659  21.500  24.544  0.00  0.00     0.043 A 
ATOM     22  C   UNL d   1     -32.823  21.084  23.882  0.00  0.00    -0.021 A 
ATOM     23  C   UNL d   1     -32.945  21.267  22.535  0.00  0.00     0.074 A 
ATOM     24  C   UNL d   1     -33.939  20.435  24.659  0.00  0.00     0.051 C 
ATOM     25  C   UNL d   1     -31.920  21.870  21.809  0.00  0.00     0.097 A 
ATOM     26 CL   UNL d   1     -34.389  20.750  21.722  0.00  0.00    -0.081 Cl
BRANCH  20  27
ATOM     27  O   UNL d   1     -29.490  22.511  24.443  0.00  0.00    -0.359 OA
ATOM     28  H   UNL d   1     -29.472  22.310  25.388  0.00  0.00     0.217 HD
ENDBRANCH  20  27
BRANCH  21  29
ATOM     29  C   UNL d   1     -31.524  21.304  25.989  0.00  0.00     0.273 C 
ATOM     30  O   UNL d   1     -30.689  20.539  26.423  0.00  0.00    -0.301 OA
ENDBRANCH  21  29
BRANCH  25  31
ATOM     31  O   UNL d   1     -32.056  22.051  20.471  0.00  0.00    -0.358 OA
ATOM     32  H   UNL d   1     -32.973  22.049  20.166  0.00  0.00     0.217 HD
ENDBRANCH  25  31
ENDBRANCH  18  19
ENDBRANCH   3  18
TORSDOF 10
ENDMDL
