MODEL 1
REMARK VINA RESULT:      -8.5      0.000      0.000
REMARK  5 active torsions:
REMARK  status: ('A' for Active; 'I' for Inactive)
REMARK    1  A    between atoms: C_2  and  C_4 
REMARK    2  A    between atoms: C_9  and  C_10 
REMARK    3  A    between atoms: C_10  and  O_12 
REMARK    4  A    between atoms: C_13  and  O_14 
REMARK    5  A    between atoms: C_15  and  C_16 
ROOT
ATOM      1  C   UNL d   1     -26.607  22.535  23.848  0.00  0.00    -0.025 A 
ATOM      2  C   UNL d   1     -27.603  21.788  23.295  0.00  0.00     0.010 A 
ATOM      3  C   UNL d   1     -27.552  21.402  21.959  0.00  0.00     0.002 A 
ATOM      4  C   UNL d   1     -26.499  21.756  21.168  0.00  0.00     0.015 A 
ATOM      5  C   UNL d   1     -25.457  22.518  21.706  0.00  0.00     0.013 A 
ATOM      6  C   UNL d   1     -24.307  22.921  20.894  0.00  0.00     0.085 A 
ATOM      7  C   UNL d   1     -23.317  23.679  21.519  0.00  0.00     0.113 A 
ATOM      8  C   UNL d   1     -23.467  24.018  22.881  0.00  0.00     0.102 A 
ATOM      9  N   UNL d   1     -24.510  23.642  23.585  0.00  0.00    -0.244 NA
ATOM     10  C   UNL d   1     -25.502  22.915  23.065  0.00  0.00     0.075 A 
ENDROOT
BRANCH   8  11
ATOM     11  C   UNL d   1     -22.411  24.825  23.538  0.00  0.00    -0.004 A 
ATOM     12  C   UNL d   1     -22.638  26.169  23.828  0.00  0.00     0.015 A 
ATOM     13  C   UNL d   1     -21.653  26.915  24.441  0.00  0.00     0.024 A 
ATOM     14  C   UNL d   1     -20.441  26.331  24.768  0.00  0.00     0.034 A 
ATOM     15  C   UNL d   1     -20.210  24.996  24.482  0.00  0.00     0.024 A 
ATOM     16 CL   UNL d   1     -19.204  27.276  25.539  0.00  0.00    -0.084 Cl
ATOM     17  C   UNL d   1     -21.190  24.240  23.873  0.00  0.00     0.015 A 
ENDBRANCH   8  11
BRANCH   7  18
ATOM     18  O   UNL d   1     -22.226  24.086  20.827  0.00  0.00    -0.357 OA
ATOM     19  H   UNL d   1     -21.622  23.369  20.587  0.00  0.00     0.217 HD
ENDBRANCH   7  18
BRANCH   6  20
ATOM     20  C   UNL d   1     -24.199  22.540  19.474  0.00  0.00     0.180 C 
ATOM     21  O   UNL d   1     -23.711  21.469  19.169  0.00  0.00    -0.646 OA
BRANCH  20  22
ATOM     22  O   UNL d   1     -24.640  23.378  18.516  0.00  0.00    -0.773 OA
ATOM     23  H   UNL d   1     -24.930  24.256  18.799  0.00  0.00     0.167 HD
ENDBRANCH  20  22
ENDBRANCH   6  20
BRANCH   1  24
ATOM     24  C   UNL d   1     -26.687  22.947  25.296  0.00  0.00     0.013 C 
ATOM     25  C   UNL d   1     -26.936  24.455  25.384  0.00  0.00     0.015 C 
ATOM     26  C   UNL d   1     -27.835  22.200  25.977  0.00  0.00     0.015 C 
ENDBRANCH   1  24
TORSDOF 5
ENDMDL
