MODEL 1
REMARK VINA RESULT:      -9.3      0.000      0.000
REMARK  15 active torsions:
REMARK  status: ('A' for Active; 'I' for Inactive)
REMARK    1  A    between atoms: C_2  and  C_18 
REMARK    2  A    between atoms: C_3  and  C_4 
REMARK    3  A    between atoms: C_4  and  C_5 
REMARK    4  A    between atoms: C_6  and  O_7 
REMARK    5  A    between atoms: C_12  and  C_13 
REMARK    6  A    between atoms: C_13  and  O_15 
REMARK    7  A    between atoms: C_16  and  O_17 
REMARK    8  A    between atoms: C_18  and  C_19 
REMARK    9  A    between atoms: C_19  and  C_20 
REMARK   10  A    between atoms: C_21  and  C_23 
REMARK   11  A    between atoms: C_23  and  C_24 
REMARK   12  A    between atoms: C_24  and  C_25 
REMARK   13  A    between atoms: C_25  and  O_26 
REMARK   14  A    between atoms: C_25  and  C_27 
REMARK   15  A    between atoms: C_27  and  O_30 
ROOT
ATOM      1  C   UNL d   1     -24.001  22.975  19.522  0.00  0.00     0.043 C 
ATOM      2  C   UNL d   1     -23.990  22.705  21.005  0.00  0.00    -0.087 C 
ATOM      3  C   UNL d   1     -23.459  23.578  21.825  0.00  0.00    -0.020 C 
ENDROOT
BRANCH   3   4
ATOM      4  C   UNL d   1     -22.745  24.788  21.278  0.00  0.00     0.072 C 
BRANCH   4   5
ATOM      5  C   UNL d   1     -21.889  25.397  22.359  0.00  0.00     0.014 A 
ATOM      6  C   UNL d   1     -20.518  25.207  22.345  0.00  0.00     0.092 A 
ATOM      7  C   UNL d   1     -19.725  25.777  23.354  0.00  0.00     0.079 A 
ATOM      8  C   UNL d   1     -20.327  26.532  24.366  0.00  0.00    -0.018 A 
ATOM      9  C   UNL d   1     -21.692  26.713  24.369  0.00  0.00     0.074 A 
ATOM     10  C   UNL d   1     -19.484  27.140  25.456  0.00  0.00     0.051 C 
ATOM     11  C   UNL d   1     -22.476  26.148  23.367  0.00  0.00     0.097 A 
ATOM     12 CL   UNL d   1     -22.437  27.651  25.626  0.00  0.00    -0.081 Cl
BRANCH   6  13
ATOM     13  O   UNL d   1     -19.943  24.473  21.360  0.00  0.00    -0.359 OA
ATOM     14  H   UNL d   1     -19.477  25.002  20.698  0.00  0.00     0.217 HD
ENDBRANCH   6  13
BRANCH   7  15
ATOM     15  C   UNL d   1     -18.267  25.580  23.346  0.00  0.00     0.179 C 
ATOM     16  O   UNL d   1     -17.729  24.988  24.262  0.00  0.00    -0.646 OA
BRANCH  15  17
ATOM     17  O   UNL d   1     -17.529  26.056  22.325  0.00  0.00    -0.773 OA
ATOM     18  H   UNL d   1     -17.715  25.698  21.444  0.00  0.00     0.167 HD
ENDBRANCH  15  17
ENDBRANCH   7  15
BRANCH  11  19
ATOM     19  O   UNL d   1     -23.821  26.333  23.376  0.00  0.00    -0.358 OA
ATOM     20  H   UNL d   1     -24.299  25.708  23.939  0.00  0.00     0.217 HD
ENDBRANCH  11  19
ENDBRANCH   4   5
ENDBRANCH   3   4
BRANCH   2  21
ATOM     21  C   UNL d   1     -24.588  21.432  21.544  0.00  0.00     0.037 C 
BRANCH  21  22
ATOM     22  C   UNL d   1     -26.098  21.433  21.298  0.00  0.00     0.031 C 
BRANCH  22  23
ATOM     23  C   UNL d   1     -26.799  22.059  22.476  0.00  0.00    -0.024 C 
ATOM     24  C   UNL d   1     -28.085  22.298  22.421  0.00  0.00    -0.087 C 
ATOM     25  C   UNL d   1     -28.841  22.068  21.137  0.00  0.00     0.043 C 
BRANCH  24  26
ATOM     26  C   UNL d   1     -28.811  22.801  23.642  0.00  0.00     0.036 C 
BRANCH  26  27
ATOM     27  C   UNL d   1     -29.447  21.620  24.380  0.00  0.00     0.039 C 
BRANCH  27  28
ATOM     28  C   UNL d   1     -30.944  21.572  24.069  0.00  0.00     0.152 C 
BRANCH  28  29
ATOM     29  O   UNL d   1     -31.406  22.886  23.744  0.00  0.00    -0.393 OA
ATOM     30  H   UNL d   1     -31.748  23.380  24.501  0.00  0.00     0.210 HD
ENDBRANCH  28  29
BRANCH  28  31
ATOM     31  C   UNL d   1     -31.702  21.054  25.292  0.00  0.00     0.076 C 
ATOM     32  C   UNL d   1     -33.134  20.692  24.890  0.00  0.00     0.048 C 
ATOM     33  C   UNL d   1     -30.998  19.811  25.842  0.00  0.00     0.048 C 
BRANCH  31  34
ATOM     34  O   UNL d   1     -31.732  22.068  26.299  0.00  0.00    -0.388 OA
ATOM     35  H   UNL d   1     -32.569  22.552  26.345  0.00  0.00     0.210 HD
ENDBRANCH  31  34
ENDBRANCH  28  31
ENDBRANCH  27  28
ENDBRANCH  26  27
ENDBRANCH  24  26
ENDBRANCH  22  23
ENDBRANCH  21  22
ENDBRANCH   2  21
TORSDOF 15
ENDMDL
