MODEL 1
REMARK VINA RESULT:     -13.2      0.000      0.000
REMARK  6 active torsions:
REMARK  status: ('A' for Active; 'I' for Inactive)
REMARK    1  A    between atoms: C_4  and  C_5 
REMARK    2  A    between atoms: C_5  and  O_7 
REMARK    3  A    between atoms: C_10  and  C_11 
REMARK    4  A    between atoms: C_16  and  C_17 
REMARK    5  A    between atoms: C_20  and  N_21 
REMARK       I    between atoms: N_21  and  C_22 
REMARK    6  A    between atoms: C_22  and  C_24 
ROOT
ATOM      1  C   UNL d   1     -27.005  22.699  22.810  0.00  0.00     0.093 A 
ATOM      2  C   UNL d   1     -26.438  23.711  23.591  0.00  0.00     0.173 A 
ATOM      3  F   UNL d   1     -27.200  24.387  24.479  0.00  0.00    -0.202 F 
ATOM      4  C   UNL d   1     -25.099  24.020  23.454  0.00  0.00     0.170 A 
ATOM      5  F   UNL d   1     -24.552  24.999  24.208  0.00  0.00    -0.202 F 
ATOM      6  C   UNL d   1     -24.311  23.322  22.536  0.00  0.00     0.058 A 
ATOM      7  C   UNL d   1     -24.877  22.315  21.753  0.00  0.00     0.170 A 
ATOM      8  F   UNL d   1     -24.114  21.644  20.862  0.00  0.00    -0.202 F 
ATOM      9  C   UNL d   1     -26.215  22.001  21.890  0.00  0.00     0.173 A 
ATOM     10  F   UNL d   1     -26.761  21.022  21.136  0.00  0.00    -0.202 F 
ENDROOT
BRANCH   6  11
ATOM     11  C   UNL d   1     -22.875  23.656  22.390  0.00  0.00    -0.019 A 
ATOM     12  C   UNL d   1     -21.952  23.200  23.332  0.00  0.00     0.014 A 
ATOM     13  C   UNL d   1     -20.616  23.507  23.190  0.00  0.00     0.030 A 
ATOM     14  C   UNL d   1     -20.189  24.281  22.117  0.00  0.00     0.034 A 
ATOM     15  C   UNL d   1     -21.106  24.736  21.177  0.00  0.00     0.030 A 
ATOM     16  C   UNL d   1     -22.443  24.427  21.311  0.00  0.00     0.014 A 
BRANCH  14  17
ATOM     17  N   UNL d   1     -18.834  24.596  21.979  0.00  0.00    -0.325 N 
ATOM     18  C   UNL d   1     -18.275  25.533  22.771  0.00  0.00     0.255 C 
ATOM     19  O   UNL d   1     -18.968  26.169  23.538  0.00  0.00    -0.271 OA
ATOM     20  H   UNL d   1     -18.296  24.141  21.313  0.00  0.00     0.169 HD
BRANCH  18  21
ATOM     21  C   UNL d   1     -16.792  25.788  22.706  0.00  0.00     0.311 C 
ATOM     22  N   UNL d   1     -16.133  25.226  23.899  0.00  0.00     0.097 N 
ATOM     23  C   UNL d   1     -15.488  26.328  24.645  0.00  0.00     0.271 C 
ATOM     24  H   UNL d   1     -16.797  24.735  24.481  0.00  0.00     0.317 HD
ATOM     25  C   UNL d   1     -15.246  27.432  23.586  0.00  0.00     0.033 C 
ATOM     26  C   UNL d   1     -16.517  27.306  22.706  0.00  0.00     0.047 C 
ENDBRANCH  18  21
ENDBRANCH  14  17
ENDBRANCH   6  11
BRANCH   1  27
ATOM     27  C   UNL d   1     -28.435  22.367  22.955  0.00  0.00     0.145 A 
ATOM     28  N   UNL d   1     -28.993  21.885  24.043  0.00  0.00    -0.227 NA
ATOM     29  C   UNL d   1     -30.308  21.697  23.835  0.00  0.00     0.102 A 
ATOM     30  C   UNL d   1     -31.358  21.212  24.647  0.00  0.00     0.069 A 
ATOM     31  C   UNL d   1     -30.586  22.093  22.516  0.00  0.00     0.064 A 
ATOM     32  C   UNL d   1     -32.648  21.136  24.124  0.00  0.00     0.027 A 
ATOM     33  C   UNL d   1     -32.899  21.531  22.824  0.00  0.00    -0.059 A 
ATOM     34  C   UNL d   1     -34.299  21.442  22.275  0.00  0.00     0.048 C 
ATOM     35  C   UNL d   1     -31.879  22.007  22.023  0.00  0.00     0.038 A 
ATOM     36  N   UNL d   1     -29.384  22.518  21.981  0.00  0.00    -0.338 N 
ATOM     37  H   UNL d   1     -29.240  22.859  21.084  0.00  0.00     0.167 HD
BRANCH  30  38
ATOM     38  C   UNL d   1     -31.092  20.791  26.033  0.00  0.00     0.178 C 
ATOM     39  O   UNL d   1     -31.572  19.758  26.456  0.00  0.00    -0.646 OA
BRANCH  38  40
ATOM     40  O   UNL d   1     -30.318  21.552  26.831  0.00  0.00    -0.773 OA
ATOM     41  H   UNL d   1     -29.446  21.202  27.061  0.00  0.00     0.167 HD
ENDBRANCH  38  40
ENDBRANCH  30  38
ENDBRANCH   1  27
TORSDOF 6
ENDMDL
