MODEL 1
REMARK VINA RESULT:     -11.3      0.000      0.000
REMARK  6 active torsions:
REMARK  status: ('A' for Active; 'I' for Inactive)
REMARK    1  A    between atoms: C_2  and  O_3 
REMARK    2  A    between atoms: C_2  and  C_4 
REMARK    3  A    between atoms: C_6  and  C_7 
REMARK    4  A    between atoms: C_12  and  N_13 
REMARK    5  A    between atoms: N_13  and  C_14 
REMARK    6  A    between atoms: C_17  and  C_18 
ROOT
ATOM      1  N   UNL d   1     -28.139  22.516  24.363  0.00  0.00    -0.353 N 
ATOM      2  H   UNL d   1     -28.221  22.381  25.321  0.00  0.00     0.166 HD
ENDROOT
BRANCH   1   3
ATOM      3  C   UNL d   1     -29.253  22.378  23.546  0.00  0.00     0.049 A 
ATOM      4  C   UNL d   1     -30.465  21.907  24.076  0.00  0.00     0.064 A 
ATOM      5  C   UNL d   1     -31.578  21.773  23.240  0.00  0.00     0.028 A 
ATOM      6  C   UNL d   1     -31.479  22.103  21.907  0.00  0.00    -0.053 A 
ATOM      7  C   UNL d   1     -30.280  22.563  21.385  0.00  0.00     0.010 A 
ATOM      8  C   UNL d   1     -29.174  22.706  22.197  0.00  0.00     0.031 A 
BRANCH   4   9
ATOM      9  C   UNL d   1     -30.563  21.556  25.502  0.00  0.00     0.178 C 
ATOM     10  O   UNL d   1     -31.505  21.949  26.162  0.00  0.00    -0.646 OA
BRANCH   9  11
ATOM     11  O   UNL d   1     -29.608  20.799  26.077  0.00  0.00    -0.773 OA
ATOM     12  H   UNL d   1     -29.903  20.102  26.679  0.00  0.00     0.167 HD
ENDBRANCH   9  11
ENDBRANCH   4   9
BRANCH   6  13
ATOM     13  C   UNL d   1     -32.681  21.959  21.008  0.00  0.00     0.018 A 
ATOM     14  C   UNL d   1     -34.057  22.228  21.619  0.00  0.00     0.010 A 
ATOM     15  C   UNL d   1     -33.635  20.796  21.283  0.00  0.00     0.010 A 
ENDBRANCH   6  13
ENDBRANCH   1   3
BRANCH   1  16
ATOM     16  C   UNL d   1     -26.900  22.846  23.807  0.00  0.00     0.068 A 
ATOM     17  C   UNL d   1     -26.268  24.043  24.136  0.00  0.00     0.150 A 
ATOM     18  N   UNL d   1     -25.097  24.322  23.590  0.00  0.00    -0.238 NA
ATOM     19  C   UNL d   1     -24.526  23.478  22.740  0.00  0.00     0.162 A 
ATOM     20  N   UNL d   1     -25.099  22.332  22.403  0.00  0.00    -0.238 NA
ATOM     21  C   UNL d   1     -26.267  21.984  22.914  0.00  0.00     0.150 A 
BRANCH  19  22
ATOM     22  C   UNL d   1     -23.211  23.829  22.150  0.00  0.00     0.053 A 
ATOM     23  C   UNL d   1     -22.033  23.529  22.836  0.00  0.00     0.130 A 
ATOM     24  C   UNL d   1     -20.810  23.853  22.277  0.00  0.00     0.046 A 
ATOM     25  F   UNL d   1     -22.087  22.918  24.039  0.00  0.00    -0.205 F 
ATOM     26  C   UNL d   1     -20.754  24.483  21.047  0.00  0.00     0.045 A 
ATOM     27  C   UNL d   1     -21.921  24.788  20.366  0.00  0.00     0.117 A 
ATOM     28  C   UNL d   1     -23.149  24.464  20.911  0.00  0.00     0.060 A 
ATOM     29  F   UNL d   1     -21.858  25.404  19.164  0.00  0.00    -0.206 F 
ENDBRANCH  19  22
ENDBRANCH   1  16
TORSDOF 6
ENDMDL
