MODEL 1
REMARK VINA RESULT:      -8.5      0.000      0.000
REMARK  3 active torsions:
REMARK  status: ('A' for Active; 'I' for Inactive)
REMARK    1  A    between atoms: C_2  and  C_4 
REMARK    2  A    between atoms: C_6  and  N_7 
REMARK    3  A    between atoms: N_7  and  C_8 
ROOT
ATOM      1  N   UNL d   1     -25.937  21.208  21.669  0.00  0.00    -0.335 N 
ATOM      2  H   UNL d   1     -25.718  20.287  21.458  0.00  0.00     0.168 HD
ENDROOT
BRANCH   1   3
ATOM      3  C   UNL d   1     -24.981  22.191  21.540  0.00  0.00     0.172 A 
ATOM      4  S   UNL d   1     -24.025  22.443  20.144  0.00  0.00    -0.046 SA
ATOM      5  C   UNL d   1     -23.212  23.795  20.929  0.00  0.00     0.078 A 
ATOM      6  C   UNL d   1     -23.746  23.930  22.188  0.00  0.00     0.054 A 
ATOM      7  N   UNL d   1     -24.678  23.059  22.464  0.00  0.00    -0.228 NA
ATOM      8  C   UNL d   1     -23.292  24.986  23.163  0.00  0.00     0.072 C 
BRANCH   5   9
ATOM      9  C   UNL d   1     -22.196  24.592  20.368  0.00  0.00     0.164 C 
ATOM     10  C   UNL d   1     -20.768  24.418  20.816  0.00  0.00     0.097 C 
ATOM     11  O   UNL d   1     -22.471  25.419  19.521  0.00  0.00    -0.292 OA
ENDBRANCH   5   9
ENDBRANCH   1   3
BRANCH   1  12
ATOM     12  C   UNL d   1     -27.223  21.538  22.105  0.00  0.00     0.035 A 
ATOM     13  C   UNL d   1     -28.237  21.757  21.181  0.00  0.00     0.053 A 
ATOM     14  C   UNL d   1     -29.509  22.078  21.615  0.00  0.00     0.042 A 
ATOM     15  C   UNL d   1     -29.769  22.194  22.969  0.00  0.00    -0.040 A 
ATOM     16 CL   UNL d   1     -30.779  22.343  20.462  0.00  0.00    -0.084 Cl
ATOM     17  C   UNL d   1     -28.760  21.983  23.892  0.00  0.00     0.011 A 
ATOM     18  C   UNL d   1     -31.156  22.552  23.441  0.00  0.00     0.050 C 
ATOM     19  C   UNL d   1     -27.489  21.655  23.464  0.00  0.00     0.030 A 
ENDBRANCH   1  12
TORSDOF 3
ENDMDL
