MODEL 1
REMARK VINA RESULT:     -12.8      0.000      0.000
REMARK  4 active torsions:
REMARK  status: ('A' for Active; 'I' for Inactive)
REMARK    1  A    between atoms: C_4  and  C_5 
REMARK    2  A    between atoms: C_5  and  O_7 
REMARK    3  A    between atoms: C_10  and  C_11 
REMARK    4  A    between atoms: C_16  and  C_17 
ROOT
ATOM      1  C   UNL d   1     -26.986  22.650  23.098  0.00  0.00     0.093 A 
ATOM      2  C   UNL d   1     -26.443  23.746  23.777  0.00  0.00     0.173 A 
ATOM      3  F   UNL d   1     -27.187  24.415  24.686  0.00  0.00    -0.202 F 
ATOM      4  C   UNL d   1     -25.145  24.143  23.520  0.00  0.00     0.170 A 
ATOM      5  F   UNL d   1     -24.621  25.201  24.177  0.00  0.00    -0.202 F 
ATOM      6  C   UNL d   1     -24.375  23.452  22.582  0.00  0.00     0.058 A 
ATOM      7  C   UNL d   1     -24.918  22.363  21.899  0.00  0.00     0.170 A 
ATOM      8  F   UNL d   1     -24.174  21.698  20.988  0.00  0.00    -0.202 F 
ATOM      9  C   UNL d   1     -26.214  21.958  22.158  0.00  0.00     0.173 A 
ATOM     10  F   UNL d   1     -26.737  20.901  21.500  0.00  0.00    -0.202 F 
ENDROOT
BRANCH   1  11
ATOM     11  C   UNL d   1     -28.373  22.225  23.371  0.00  0.00     0.145 A 
ATOM     12  N   UNL d   1     -29.367  22.291  22.514  0.00  0.00    -0.227 NA
ATOM     13  C   UNL d   1     -30.490  21.823  23.083  0.00  0.00     0.102 A 
ATOM     14  C   UNL d   1     -31.819  21.670  22.626  0.00  0.00     0.069 A 
ATOM     15  C   UNL d   1     -30.167  21.436  24.396  0.00  0.00     0.064 A 
ATOM     16  C   UNL d   1     -32.781  21.139  23.483  0.00  0.00     0.027 A 
ATOM     17  C   UNL d   1     -32.441  20.765  24.770  0.00  0.00    -0.059 A 
ATOM     18  C   UNL d   1     -33.494  20.194  25.684  0.00  0.00     0.048 C 
ATOM     19  C   UNL d   1     -31.144  20.910  25.227  0.00  0.00     0.038 A 
ATOM     20  N   UNL d   1     -28.817  21.696  24.552  0.00  0.00    -0.338 N 
ATOM     21  H   UNL d   1     -28.286  21.536  25.347  0.00  0.00     0.167 HD
BRANCH  14  22
ATOM     22  C   UNL d   1     -32.183  22.068  21.257  0.00  0.00     0.178 C 
ATOM     23  O   UNL d   1     -33.353  22.194  20.952  0.00  0.00    -0.646 OA
BRANCH  22  24
ATOM     24  O   UNL d   1     -31.220  22.294  20.342  0.00  0.00    -0.773 OA
ATOM     25  H   UNL d   1     -30.755  23.141  20.395  0.00  0.00     0.167 HD
ENDBRANCH  22  24
ENDBRANCH  14  22
ENDBRANCH   1  11
BRANCH   6  26
ATOM     26  C   UNL d   1     -22.983  23.881  22.307  0.00  0.00    -0.014 A 
ATOM     27  C   UNL d   1     -22.658  24.450  21.077  0.00  0.00     0.054 A 
ATOM     28  C   UNL d   1     -21.360  24.854  20.827  0.00  0.00     0.120 A 
ATOM     29  C   UNL d   1     -20.384  24.695  21.796  0.00  0.00     0.084 A 
ATOM     30  F   UNL d   1     -21.043  25.407  19.635  0.00  0.00    -0.206 F 
ATOM     31  C   UNL d   1     -20.702  24.130  23.020  0.00  0.00     0.120 A 
ATOM     32  C   UNL d   1     -21.997  23.722  23.279  0.00  0.00     0.054 A 
ATOM     33  F   UNL d   1     -19.746  23.977  23.962  0.00  0.00    -0.206 F 
ENDBRANCH   6  26
TORSDOF 4
ENDMDL
