MODEL 1
REMARK VINA RESULT:     -11.1      0.000      0.000
REMARK  6 active torsions:
REMARK  status: ('A' for Active; 'I' for Inactive)
REMARK    1  A    between atoms: C_2  and  O_3 
REMARK    2  A    between atoms: C_2  and  C_34 
REMARK    3  A    between atoms: O_3  and  C_4 
REMARK    4  A    between atoms: C_6  and  N_7 
REMARK    5  A    between atoms: C_20  and  C_21 
REMARK       I    between atoms: C_21  and  N_23 
REMARK    6  A    between atoms: N_23  and  C_24 
ROOT
ATOM      1  C   UNL d   1     -24.729  23.332  22.653  0.00  0.00     0.087 A 
ATOM      2  C   UNL d   1     -25.995  22.796  22.815  0.00  0.00     0.073 A 
ATOM      3  C   UNL d   1     -26.851  23.314  23.777  0.00  0.00     0.104 A 
ATOM      4  C   UNL d   1     -26.441  24.374  24.586  0.00  0.00     0.146 A 
ATOM      5  F   UNL d   1     -27.280  24.872  25.520  0.00  0.00    -0.204 F 
ATOM      6  C   UNL d   1     -25.181  24.910  24.437  0.00  0.00     0.064 A 
ATOM      7  C   UNL d   1     -24.315  24.398  23.464  0.00  0.00     0.068 A 
ENDROOT
BRANCH   7   8
ATOM      8  C   UNL d   1     -22.969  24.973  23.298  0.00  0.00     0.259 C 
ATOM      9  O   UNL d   1     -22.826  26.022  22.700  0.00  0.00    -0.267 OA
ATOM     10  N   UNL d   1     -21.896  24.340  23.813  0.00  0.00    -0.321 N 
ATOM     11  H   UNL d   1     -22.018  23.547  24.360  0.00  0.00     0.169 HD
BRANCH  10  12
ATOM     12  C   UNL d   1     -20.612  24.824  23.561  0.00  0.00     0.064 A 
ATOM     13  C   UNL d   1     -19.986  25.693  24.481  0.00  0.00     0.093 A 
ATOM     14  C   UNL d   1     -18.680  26.165  24.203  0.00  0.00    -0.005 A 
ATOM     15  N   UNL d   1     -20.604  26.069  25.604  0.00  0.00    -0.258 NA
ATOM     16  C   UNL d   1     -18.035  25.772  23.019  0.00  0.00     0.014 A 
ATOM     17  C   UNL d   1     -18.055  27.028  25.124  0.00  0.00     0.015 A 
ATOM     18  C   UNL d   1     -18.665  24.937  22.147  0.00  0.00     0.003 A 
ATOM     19  C   UNL d   1     -19.947  24.461  22.410  0.00  0.00     0.032 A 
ATOM     20  C   UNL d   1     -18.748  27.382  26.247  0.00  0.00     0.020 A 
ATOM     21  C   UNL d   1     -20.029  26.878  26.461  0.00  0.00     0.117 A 
ENDBRANCH  10  12
ENDBRANCH   7   8
BRANCH   1  22
ATOM     22  O   UNL d   1     -23.891  22.828  21.712  0.00  0.00    -0.336 OA
BRANCH  22  23
ATOM     23  C   UNL d   1     -23.980  23.386  20.400  0.00  0.00     0.232 C 
ATOM     24  C   UNL d   1     -22.589  23.821  19.936  0.00  0.00     0.049 C 
BRANCH  23  25
ATOM     25  C   UNL d   1     -24.533  22.335  19.435  0.00  0.00     0.413 C 
ATOM     26  F   UNL d   1     -23.698  21.212  19.441  0.00  0.00    -0.168 F 
ATOM     27  F   UNL d   1     -25.819  21.961  19.839  0.00  0.00    -0.168 F 
ATOM     28  F   UNL d   1     -24.588  22.868  18.143  0.00  0.00    -0.168 F 
ENDBRANCH  23  25
ENDBRANCH  22  23
ENDBRANCH   1  22
BRANCH   3  29
ATOM     29  N   UNL d   1     -28.128  22.771  23.937  0.00  0.00    -0.178 N 
ATOM     30  C   UNL d   1     -28.547  21.998  24.963  0.00  0.00     0.351 A 
ATOM     31  N   UNL d   1     -29.841  21.712  24.747  0.00  0.00    -0.284 N 
ATOM     32  O   UNL d   1     -27.875  21.631  25.910  0.00  0.00    -0.244 OA
ATOM     33  C   UNL d   1     -30.219  22.286  23.550  0.00  0.00     0.131 A 
ATOM     34  C   UNL d   1     -30.743  20.949  25.617  0.00  0.00     0.135 C 
ATOM     35  N   UNL d   1     -29.215  22.931  23.064  0.00  0.00    -0.149 NA
ATOM     36  C   UNL d   1     -31.596  22.136  22.947  0.00  0.00     0.081 C 
ATOM     37  C   UNL d   1     -32.555  21.688  24.058  0.00  0.00     0.009 C 
ATOM     38  C   UNL d   1     -31.947  20.486  24.788  0.00  0.00     0.021 C 
ENDBRANCH   3  29
TORSDOF 6
ENDMDL
