MODEL 1
REMARK VINA RESULT:     -11.2      0.000      0.000
REMARK  7 active torsions:
REMARK  status: ('A' for Active; 'I' for Inactive)
REMARK    1  A    between atoms: C_5  and  N_6 
REMARK    2  A    between atoms: N_6  and  C_7 
REMARK    3  A    between atoms: C_10  and  C_11 
REMARK    4  A    between atoms: C_15  and  O_16 
REMARK    5  A    between atoms: O_16  and  C_17 
REMARK    6  A    between atoms: C_24  and  C_25 
REMARK    7  A    between atoms: C_25  and  O_27 
ROOT
ATOM      1  C   UNL d   1     -24.649  22.489  22.096  0.00  0.00     0.050 A 
ATOM      2  C   UNL d   1     -25.527  21.593  21.496  0.00  0.00     0.146 A 
ATOM      3  N   UNL d   1     -26.769  21.482  21.918  0.00  0.00    -0.258 NA
ATOM      4  C   UNL d   1     -27.230  22.213  22.925  0.00  0.00     0.072 A 
ATOM      5  C   UNL d   1     -26.407  23.130  23.575  0.00  0.00    -0.030 A 
ATOM      6  C   UNL d   1     -26.939  23.956  24.718  0.00  0.00     0.050 C 
ATOM      7  C   UNL d   1     -25.099  23.278  23.154  0.00  0.00     0.040 A 
ENDROOT
BRANCH   1   8
ATOM      8  N   UNL d   1     -23.333  22.600  21.640  0.00  0.00    -0.354 N 
ATOM      9  H   UNL d   1     -23.031  22.055  20.898  0.00  0.00     0.166 HD
BRANCH   8  10
ATOM     10  C   UNL d   1     -22.460  23.490  22.252  0.00  0.00     0.049 A 
ATOM     11  C   UNL d   1     -22.065  23.287  23.569  0.00  0.00     0.031 A 
ATOM     12  C   UNL d   1     -21.193  24.169  24.173  0.00  0.00     0.009 A 
ATOM     13  C   UNL d   1     -20.714  25.269  23.480  0.00  0.00    -0.061 A 
ATOM     14  C   UNL d   1     -19.767  26.227  24.155  0.00  0.00     0.048 C 
ATOM     15  C   UNL d   1     -21.098  25.491  22.175  0.00  0.00     0.027 A 
ATOM     16  C   UNL d   1     -21.976  24.603  21.546  0.00  0.00     0.064 A 
BRANCH  16  17
ATOM     17  C   UNL d   1     -22.391  24.834  20.152  0.00  0.00     0.178 C 
ATOM     18  O   UNL d   1     -21.639  25.395  19.379  0.00  0.00    -0.646 OA
BRANCH  17  19
ATOM     19  O   UNL d   1     -23.603  24.423  19.733  0.00  0.00    -0.773 OA
ATOM     20  H   UNL d   1     -24.148  23.940  20.369  0.00  0.00     0.167 HD
ENDBRANCH  17  19
ENDBRANCH  16  17
ENDBRANCH   8  10
ENDBRANCH   1   8
BRANCH   4  21
ATOM     21  C   UNL d   1     -28.639  22.051  23.364  0.00  0.00    -0.004 A 
ATOM     22  C   UNL d   1     -29.680  22.290  22.471  0.00  0.00     0.050 A 
ATOM     23  C   UNL d   1     -30.992  22.137  22.887  0.00  0.00     0.070 A 
ATOM     24  C   UNL d   1     -31.267  21.745  24.190  0.00  0.00     0.037 A 
ATOM     25  C   UNL d   1     -30.233  21.507  25.076  0.00  0.00     0.004 A 
ATOM     26  C   UNL d   1     -28.923  21.653  24.670  0.00  0.00     0.014 A 
BRANCH  23  27
ATOM     27  O   UNL d   1     -32.012  22.369  22.018  0.00  0.00    -0.347 OA
BRANCH  27  28
ATOM     28  C   UNL d   1     -33.292  21.836  22.363  0.00  0.00     0.120 C 
ATOM     29  C   UNL d   1     -34.355  22.925  22.209  0.00  0.00     0.040 C 
ATOM     30  C   UNL d   1     -33.623  20.664  21.437  0.00  0.00     0.040 C 
ENDBRANCH  27  28
ENDBRANCH  23  27
ENDBRANCH   4  21
TORSDOF 7
ENDMDL
