MODEL 1
REMARK VINA RESULT:     -12.0      0.000      0.000
REMARK  8 active torsions:
REMARK  status: ('A' for Active; 'I' for Inactive)
REMARK    1  A    between atoms: C_4  and  C_5 
REMARK    2  A    between atoms: C_5  and  O_7 
REMARK    3  A    between atoms: C_10  and  C_11 
REMARK    4  A    between atoms: C_14  and  C_15 
REMARK    5  A    between atoms: C_18  and  O_19 
REMARK    6  A    between atoms: O_19  and  C_20 
REMARK    7  A    between atoms: C_25  and  C_26 
REMARK    8  A    between atoms: C_26  and  O_28 
ROOT
ATOM      1  C   UNL d   1     -28.039  22.609  23.680  0.00  0.00     0.010 A 
ATOM      2  C   UNL d   1     -27.223  22.149  22.644  0.00  0.00     0.016 A 
ATOM      3  C   UNL d   1     -25.928  22.605  22.533  0.00  0.00     0.013 A 
ATOM      4  C   UNL d   1     -25.432  23.526  23.456  0.00  0.00    -0.026 A 
ATOM      5  C   UNL d   1     -26.243  23.981  24.495  0.00  0.00     0.013 A 
ATOM      6  C   UNL d   1     -27.540  23.532  24.604  0.00  0.00     0.016 A 
ENDROOT
BRANCH   4   7
ATOM      7  C   UNL d   1     -24.038  24.015  23.337  0.00  0.00    -0.026 A 
ATOM      8  C   UNL d   1     -22.974  23.114  23.387  0.00  0.00     0.015 A 
ATOM      9  C   UNL d   1     -21.679  23.572  23.276  0.00  0.00     0.038 A 
ATOM     10  C   UNL d   1     -21.432  24.929  23.114  0.00  0.00     0.076 A 
ATOM     11  C   UNL d   1     -22.489  25.829  23.063  0.00  0.00     0.038 A 
ATOM     12  C   UNL d   1     -23.787  25.377  23.174  0.00  0.00     0.015 A 
BRANCH  10  13
ATOM     13  O   UNL d   1     -20.154  25.378  23.005  0.00  0.00    -0.310 OA
BRANCH  13  14
ATOM     14  C   UNL d   1     -19.523  25.784  24.135  0.00  0.00     0.093 A 
ATOM     15  C   UNL d   1     -18.149  26.060  24.114  0.00  0.00     0.071 A 
ATOM     16  C   UNL d   1     -17.510  26.477  25.284  0.00  0.00     0.021 A 
ATOM     17  C   UNL d   1     -18.232  26.616  26.449  0.00  0.00     0.001 A 
ATOM     18  C   UNL d   1     -19.591  26.342  26.466  0.00  0.00     0.003 A 
ATOM     19  C   UNL d   1     -20.236  25.934  25.316  0.00  0.00     0.038 A 
BRANCH  15  20
ATOM     20  C   UNL d   1     -17.381  25.909  22.864  0.00  0.00     0.178 C 
ATOM     21  O   UNL d   1     -16.475  26.678  22.610  0.00  0.00    -0.646 OA
BRANCH  20  22
ATOM     22  O   UNL d   1     -17.684  24.917  22.002  0.00  0.00    -0.773 OA
ATOM     23  H   UNL d   1     -17.793  25.161  21.073  0.00  0.00     0.167 HD
ENDBRANCH  20  22
ENDBRANCH  15  20
ENDBRANCH  13  14
ENDBRANCH  10  13
ENDBRANCH   4   7
BRANCH   1  24
ATOM     24  C   UNL d   1     -29.427  22.121  23.800  0.00  0.00     0.139 A 
ATOM     25  N   UNL d   1     -30.350  22.229  22.872  0.00  0.00    -0.227 NA
ATOM     26  C   UNL d   1     -31.498  21.681  23.306  0.00  0.00     0.102 A 
ATOM     27  C   UNL d   1     -32.779  21.527  22.727  0.00  0.00     0.069 A 
ATOM     28  C   UNL d   1     -31.268  21.195  24.604  0.00  0.00     0.064 A 
ATOM     29  C   UNL d   1     -33.787  20.898  23.454  0.00  0.00     0.027 A 
ATOM     30  C   UNL d   1     -33.539  20.428  24.730  0.00  0.00    -0.059 A 
ATOM     31  C   UNL d   1     -34.640  19.750  25.503  0.00  0.00     0.048 C 
ATOM     32  C   UNL d   1     -32.290  20.573  25.304  0.00  0.00     0.038 A 
ATOM     33  N   UNL d   1     -29.946  21.481  24.892  0.00  0.00    -0.338 N 
ATOM     34  H   UNL d   1     -29.476  21.270  25.714  0.00  0.00     0.167 HD
BRANCH  27  35
ATOM     35  C   UNL d   1     -33.044  22.028  21.368  0.00  0.00     0.178 C 
ATOM     36  O   UNL d   1     -34.154  22.425  21.072  0.00  0.00    -0.646 OA
BRANCH  35  37
ATOM     37  O   UNL d   1     -32.056  22.043  20.452  0.00  0.00    -0.773 OA
ATOM     38  H   UNL d   1     -31.284  21.488  20.630  0.00  0.00     0.167 HD
ENDBRANCH  35  37
ENDBRANCH  27  35
ENDBRANCH   1  24
TORSDOF 8
ENDMDL
