MODEL 1
REMARK VINA RESULT:      -9.4      0.000      0.000
REMARK  9 active torsions:
REMARK  status: ('A' for Active; 'I' for Inactive)
REMARK    1  A    between atoms: C_2  and  C_3 
REMARK    2  A    between atoms: C_3  and  O_4 
REMARK    3  A    between atoms: C_5  and  C_8 
REMARK       I    between atoms: C_8  and  N_10 
REMARK    4  A    between atoms: N_10  and  C_11 
REMARK    5  A    between atoms: C_14  and  O_15 
REMARK    6  A    between atoms: O_15  and  S_16 
REMARK    7  A    between atoms: S_16  and  C_19 
REMARK    8  A    between atoms: C_23  and  C_24 
REMARK    9  A    between atoms: C_24  and  O_26 
ROOT
ATOM      1  C   UNL d   1     -24.210  25.804  23.532  0.00  0.00     0.069 C 
ATOM      2  C   UNL d   1     -24.042  24.466  23.326  0.00  0.00     0.141 C 
ATOM      3  C   UNL d   1     -22.745  23.946  23.014  0.00  0.00     0.107 C 
ATOM      4  N   UNL d   1     -21.717  23.533  22.767  0.00  0.00    -0.191 NA
ENDROOT
BRANCH   2   5
ATOM      5  C   UNL d   1     -25.196  23.559  23.418  0.00  0.00     0.269 C 
ATOM      6  O   UNL d   1     -25.209  22.525  22.777  0.00  0.00    -0.266 OA
ATOM      7  N   UNL d   1     -26.239  23.872  24.212  0.00  0.00    -0.322 N 
ATOM      8  H   UNL d   1     -26.197  24.659  24.778  0.00  0.00     0.169 HD
BRANCH   7   9
ATOM      9  C   UNL d   1     -27.382  23.063  24.219  0.00  0.00     0.036 A 
ATOM     10  C   UNL d   1     -28.249  23.086  23.141  0.00  0.00     0.050 A 
ATOM     11  C   UNL d   1     -29.387  22.273  23.147  0.00  0.00     0.076 A 
ATOM     12  C   UNL d   1     -29.646  21.450  24.251  0.00  0.00     0.106 A 
ATOM     13  C   UNL d   1     -28.770  21.443  25.327  0.00  0.00     0.041 A 
ATOM     14  C   UNL d   1     -27.646  22.243  25.312  0.00  0.00     0.032 A 
BRANCH  11  15
ATOM     15  C   UNL d   1     -30.313  22.287  22.000  0.00  0.00     0.295 C 
ATOM     16  O   UNL d   1     -29.877  22.235  20.866  0.00  0.00    -0.259 OA
BRANCH  15  17
ATOM     17  O   UNL d   1     -31.642  22.357  22.207  0.00  0.00    -0.322 OA
ATOM     18  C   UNL d   1     -32.502  21.869  21.145  0.00  0.00     0.213 C 
ENDBRANCH  15  17
ENDBRANCH  11  15
BRANCH  12  19
ATOM     19  O   UNL d   1     -30.750  20.663  24.269  0.00  0.00    -0.225 OA
BRANCH  19  20
ATOM     20  S   UNL d   1     -31.749  21.021  25.360  0.00  0.00     0.374 S 
ATOM     21  O   UNL d   1     -31.408  20.165  26.442  0.00  0.00    -0.189 OA
ATOM     22  O   UNL d   1     -31.643  22.432  25.481  0.00  0.00    -0.189 OA
BRANCH  20  23
ATOM     23  C   UNL d   1     -33.361  20.560  24.668  0.00  0.00     0.524 C 
ATOM     24  F   UNL d   1     -34.168  20.026  25.680  0.00  0.00    -0.155 F 
ATOM     25  F   UNL d   1     -33.979  21.692  24.127  0.00  0.00    -0.155 F 
ATOM     26  F   UNL d   1     -33.181  19.602  23.664  0.00  0.00    -0.155 F 
ENDBRANCH  20  23
ENDBRANCH  19  20
ENDBRANCH  12  19
ENDBRANCH   7   9
ENDBRANCH   2   5
BRANCH   1  27
ATOM     27  C   UNL d   1     -23.027  26.733  23.437  0.00  0.00     0.061 C 
ATOM     28  C   UNL d   1     -22.406  26.910  24.824  0.00  0.00     0.012 C 
ENDBRANCH   1  27
BRANCH   1  29
ATOM     29  O   UNL d   1     -25.428  26.292  23.819  0.00  0.00    -0.363 OA
ATOM     30  H   UNL d   1     -25.843  26.857  23.152  0.00  0.00     0.217 HD
ENDBRANCH   1  29
TORSDOF 9
ENDMDL
