MODEL 1
REMARK VINA RESULT:     -11.5      0.000      0.000
REMARK  8 active torsions:
REMARK  status: ('A' for Active; 'I' for Inactive)
REMARK    1  A    between atoms: C_2  and  O_3 
REMARK    2  A    between atoms: C_2  and  C_35 
REMARK    3  A    between atoms: O_3  and  C_4 
REMARK    4  A    between atoms: C_6  and  N_7 
REMARK    5  A    between atoms: C_16  and  C_17 
REMARK    6  A    between atoms: C_17  and  O_19 
REMARK    7  A    between atoms: C_23  and  C_24 
REMARK       I    between atoms: C_24  and  N_26 
REMARK    8  A    between atoms: N_26  and  C_27 
ROOT
ATOM      1  C   UNL d   1     -24.718  23.367  22.619  0.00  0.00     0.087 A 
ATOM      2  C   UNL d   1     -25.989  22.842  22.779  0.00  0.00     0.073 A 
ATOM      3  C   UNL d   1     -26.840  23.362  23.744  0.00  0.00     0.104 A 
ATOM      4  C   UNL d   1     -26.420  24.414  24.557  0.00  0.00     0.146 A 
ATOM      5  F   UNL d   1     -27.255  24.919  25.491  0.00  0.00    -0.204 F 
ATOM      6  C   UNL d   1     -25.157  24.943  24.408  0.00  0.00     0.064 A 
ATOM      7  C   UNL d   1     -24.294  24.425  23.436  0.00  0.00     0.068 A 
ENDROOT
BRANCH   3   8
ATOM      8  N   UNL d   1     -28.122  22.829  23.902  0.00  0.00    -0.178 N 
ATOM      9  C   UNL d   1     -28.537  22.026  24.905  0.00  0.00     0.351 A 
ATOM     10  N   UNL d   1     -29.823  21.720  24.668  0.00  0.00    -0.283 N 
ATOM     11  O   UNL d   1     -27.869  21.649  25.851  0.00  0.00    -0.244 OA
ATOM     12  C   UNL d   1     -30.219  22.370  23.517  0.00  0.00     0.145 A 
ATOM     13  C   UNL d   1     -30.688  20.829  25.449  0.00  0.00     0.135 C 
ATOM     14  N   UNL d   1     -29.214  23.027  23.045  0.00  0.00    -0.148 NA
ATOM     15  C   UNL d   1     -31.622  22.311  22.961  0.00  0.00     0.155 C 
ATOM     16  C   UNL d   1     -32.326  21.095  23.577  0.00  0.00     0.025 C 
ATOM     17  C   UNL d   1     -32.149  21.133  25.099  0.00  0.00     0.022 C 
BRANCH  15  18
ATOM     18  C   UNL d   1     -31.570  22.162  21.462  0.00  0.00     0.151 C 
ATOM     19  O   UNL d   1     -32.576  21.905  20.845  0.00  0.00    -0.649 OA
BRANCH  18  20
ATOM     20  O   UNL d   1     -30.405  22.318  20.812  0.00  0.00    -0.776 OA
ATOM     21  H   UNL d   1     -30.380  22.980  20.109  0.00  0.00     0.167 HD
ENDBRANCH  18  20
ENDBRANCH  15  18
ENDBRANCH   3   8
BRANCH   1  22
ATOM     22  O   UNL d   1     -23.886  22.859  21.676  0.00  0.00    -0.336 OA
BRANCH  22  23
ATOM     23  C   UNL d   1     -23.992  23.399  20.357  0.00  0.00     0.232 C 
ATOM     24  C   UNL d   1     -22.611  23.845  19.876  0.00  0.00     0.049 C 
BRANCH  23  25
ATOM     25  C   UNL d   1     -24.541  22.330  19.411  0.00  0.00     0.413 C 
ATOM     26  F   UNL d   1     -25.824  21.954  19.825  0.00  0.00    -0.168 F 
ATOM     27  F   UNL d   1     -24.603  22.844  18.112  0.00  0.00    -0.168 F 
ATOM     28  F   UNL d   1     -23.699  21.213  19.430  0.00  0.00    -0.168 F 
ENDBRANCH  23  25
ENDBRANCH  22  23
ENDBRANCH   1  22
BRANCH   7  29
ATOM     29  C   UNL d   1     -22.943  24.988  23.272  0.00  0.00     0.259 C 
ATOM     30  O   UNL d   1     -22.784  26.010  22.630  0.00  0.00    -0.267 OA
ATOM     31  N   UNL d   1     -21.883  24.373  23.832  0.00  0.00    -0.318 N 
ATOM     32  H   UNL d   1     -21.997  23.517  24.276  0.00  0.00     0.169 HD
BRANCH  31  33
ATOM     33  C   UNL d   1     -20.616  24.968  23.773  0.00  0.00     0.113 A 
ATOM     34  C   UNL d   1     -19.734  24.628  22.752  0.00  0.00     0.146 A 
ATOM     35  C   UNL d   1     -18.485  25.218  22.697  0.00  0.00     0.045 A 
ATOM     36  F   UNL d   1     -20.098  23.725  21.817  0.00  0.00    -0.204 F 
ATOM     37  C   UNL d   1     -18.111  26.144  23.653  0.00  0.00     0.006 A 
ATOM     38  C   UNL d   1     -18.985  26.484  24.670  0.00  0.00     0.045 A 
ATOM     39  C   UNL d   1     -20.239  25.903  24.729  0.00  0.00     0.146 A 
ATOM     40  F   UNL d   1     -21.095  26.240  25.719  0.00  0.00    -0.204 F 
ENDBRANCH  31  33
ENDBRANCH   7  29
TORSDOF 8
ENDMDL
