MODEL 1
REMARK VINA RESULT:     -11.8      0.000      0.000
REMARK  4 active torsions:
REMARK  status: ('A' for Active; 'I' for Inactive)
REMARK    1  A    between atoms: C_4  and  C_5 
REMARK    2  A    between atoms: C_5  and  O_7 
REMARK    3  A    between atoms: C_10  and  C_11 
REMARK    4  A    between atoms: C_16  and  C_17 
ROOT
ATOM      1  C   UNL d   1     -34.095  21.535  22.851  0.00  0.00     0.048 C 
ATOM      2  C   UNL d   1     -32.657  21.613  23.294  0.00  0.00    -0.059 A 
ATOM      3  C   UNL d   1     -32.308  21.192  24.563  0.00  0.00     0.027 A 
ATOM      4  C   UNL d   1     -30.982  21.256  24.987  0.00  0.00     0.069 A 
ATOM      5  C   UNL d   1     -29.996  21.757  24.108  0.00  0.00     0.102 A 
ATOM      6  N   UNL d   1     -28.669  21.941  24.219  0.00  0.00    -0.227 NA
ATOM      7  C   UNL d   1     -28.193  22.430  23.096  0.00  0.00     0.145 A 
ATOM      8  N   UNL d   1     -29.211  22.600  22.199  0.00  0.00    -0.338 N 
ATOM      9  H   UNL d   1     -29.134  22.952  21.298  0.00  0.00     0.167 HD
ATOM     10  C   UNL d   1     -30.372  22.175  22.819  0.00  0.00     0.064 A 
ATOM     11  C   UNL d   1     -31.699  22.104  22.426  0.00  0.00     0.038 A 
ENDROOT
BRANCH   7  12
ATOM     12  C   UNL d   1     -26.776  22.758  22.846  0.00  0.00     0.093 A 
ATOM     13  C   UNL d   1     -26.160  23.796  23.555  0.00  0.00     0.173 A 
ATOM     14  C   UNL d   1     -24.835  24.101  23.319  0.00  0.00     0.170 A 
ATOM     15  F   UNL d   1     -26.864  24.500  24.468  0.00  0.00    -0.202 F 
ATOM     16  C   UNL d   1     -24.108  23.374  22.374  0.00  0.00     0.058 A 
ATOM     17  F   UNL d   1     -24.241  25.104  24.003  0.00  0.00    -0.202 F 
ATOM     18  C   UNL d   1     -24.720  22.337  21.666  0.00  0.00     0.170 A 
ATOM     19  C   UNL d   1     -26.044  22.027  21.903  0.00  0.00     0.173 A 
ATOM     20  F   UNL d   1     -24.015  21.635  20.752  0.00  0.00    -0.202 F 
ATOM     21  F   UNL d   1     -26.634  21.021  21.222  0.00  0.00    -0.202 F 
BRANCH  16  22
ATOM     22  C   UNL d   1     -22.684  23.703  22.121  0.00  0.00    -0.013 A 
ATOM     23  C   UNL d   1     -21.691  23.331  22.952  0.00  0.00     0.062 A 
ATOM     24  S   UNL d   1     -20.152  23.901  22.322  0.00  0.00    -0.113 SA
ATOM     25  C   UNL d   1     -20.951  24.631  20.935  0.00  0.00     0.050 A 
ATOM     26  C   UNL d   1     -22.262  24.419  21.002  0.00  0.00     0.020 A 
ENDBRANCH  16  22
ENDBRANCH   7  12
BRANCH   4  27
ATOM     27  C   UNL d   1     -30.612  20.807  26.339  0.00  0.00     0.178 C 
ATOM     28  O   UNL d   1     -30.960  19.711  26.732  0.00  0.00    -0.646 OA
BRANCH  27  29
ATOM     29  O   UNL d   1     -29.886  21.612  27.141  0.00  0.00    -0.773 OA
ATOM     30  H   UNL d   1     -29.847  22.549  26.902  0.00  0.00     0.167 HD
ENDBRANCH  27  29
ENDBRANCH   4  27
TORSDOF 4
ENDMDL
