MODEL 1
REMARK VINA RESULT:     -11.4      0.000      0.000
REMARK  4 active torsions:
REMARK  status: ('A' for Active; 'I' for Inactive)
REMARK    1  A    between atoms: C_2  and  O_3 
REMARK    2  A    between atoms: C_2  and  C_4 
REMARK    3  A    between atoms: C_11  and  C_12 
REMARK    4  A    between atoms: C_15  and  C_16 
ROOT
ATOM      1  C   UNL d   1     -32.628  21.533  23.069  0.00  0.00     0.068 A 
ATOM      2  C   UNL d   1     -33.568  20.991  23.943  0.00  0.00     0.021 A 
ATOM      3  C   UNL d   1     -33.179  20.527  25.186  0.00  0.00     0.003 A 
ATOM      4  C   UNL d   1     -31.856  20.592  25.581  0.00  0.00     0.032 A 
ATOM      5  C   UNL d   1     -30.900  21.125  24.731  0.00  0.00     0.064 A 
ATOM      6  N   UNL d   1     -29.536  21.325  24.831  0.00  0.00    -0.338 N 
ATOM      7  H   UNL d   1     -28.973  21.100  25.588  0.00  0.00     0.167 HD
ATOM      8  C   UNL d   1     -29.129  21.901  23.659  0.00  0.00     0.139 A 
ATOM      9  N   UNL d   1     -30.162  22.064  22.864  0.00  0.00    -0.227 NA
ATOM     10  C   UNL d   1     -31.274  21.604  23.462  0.00  0.00     0.102 A 
ENDROOT
BRANCH   8  11
ATOM     11  C   UNL d   1     -27.739  22.286  23.337  0.00  0.00     0.010 A 
ATOM     12  C   UNL d   1     -27.090  23.261  24.098  0.00  0.00     0.016 A 
ATOM     13  C   UNL d   1     -25.792  23.615  23.802  0.00  0.00     0.013 A 
ATOM     14  C   UNL d   1     -25.131  23.007  22.734  0.00  0.00    -0.026 A 
ATOM     15  C   UNL d   1     -25.778  22.034  21.974  0.00  0.00     0.013 A 
ATOM     16  C   UNL d   1     -27.073  21.674  22.272  0.00  0.00     0.016 A 
BRANCH  14  17
ATOM     17  C   UNL d   1     -23.736  23.393  22.413  0.00  0.00    -0.026 A 
ATOM     18  C   UNL d   1     -23.423  23.899  21.152  0.00  0.00     0.012 A 
ATOM     19  C   UNL d   1     -22.124  24.262  20.859  0.00  0.00     0.001 A 
ATOM     20  C   UNL d   1     -21.131  24.113  21.811  0.00  0.00     0.000 A 
ATOM     21  C   UNL d   1     -21.435  23.610  23.064  0.00  0.00     0.001 A 
ATOM     22  C   UNL d   1     -22.732  23.250  23.369  0.00  0.00     0.012 A 
ENDBRANCH  14  17
ENDBRANCH   8  11
BRANCH   1  23
ATOM     23  C   UNL d   1     -33.044  22.028  21.746  0.00  0.00     0.178 C 
ATOM     24  O   UNL d   1     -34.173  22.447  21.581  0.00  0.00    -0.646 OA
BRANCH  23  25
ATOM     25  O   UNL d   1     -32.172  22.019  20.719  0.00  0.00    -0.773 OA
ATOM     26  H   UNL d   1     -31.232  22.078  20.940  0.00  0.00     0.167 HD
ENDBRANCH  23  25
ENDBRANCH   1  23
TORSDOF 4
ENDMDL
