MODEL 1
REMARK VINA RESULT:      -9.3      0.000      0.000
REMARK  6 active torsions:
REMARK  status: ('A' for Active; 'I' for Inactive)
REMARK    1  A    between atoms: C_2  and  N_3 
REMARK    2  A    between atoms: C_4  and  C_5 
REMARK    3  A    between atoms: C_5  and  O_6 
REMARK    4  A    between atoms: N_8  and  C_9 
REMARK    5  A    between atoms: C_12  and  C_13 
REMARK    6  A    between atoms: N_17  and  C_18 
ROOT
ATOM      1  C   UNL d   1     -28.886  22.123  22.058  0.00  0.00     0.195 A 
ATOM      2  N   UNL d   1     -28.202  22.889  22.891  0.00  0.00    -0.225 NA
ATOM      3  C   UNL d   1     -26.889  23.041  22.764  0.00  0.00     0.083 A 
ATOM      4  C   UNL d   1     -26.118  23.882  23.680  0.00  0.00    -0.009 A 
ATOM      5  C   UNL d   1     -24.793  24.007  23.507  0.00  0.00     0.111 A 
ATOM      6  N   UNL d   1     -24.123  23.377  22.497  0.00  0.00    -0.280 N 
ATOM      7  C   UNL d   1     -24.750  22.584  21.606  0.00  0.00     0.265 A 
ATOM      8  O   UNL d   1     -24.120  22.037  20.719  0.00  0.00    -0.267 OA
ATOM      9  C   UNL d   1     -26.196  22.387  21.718  0.00  0.00     0.065 A 
ATOM     10  C   UNL d   1     -26.906  21.577  20.825  0.00  0.00     0.066 A 
ATOM     11  C   UNL d   1     -28.259  21.450  21.004  0.00  0.00     0.165 A 
ATOM     12  F   UNL d   1     -28.984  20.678  20.165  0.00  0.00    -0.202 F 
ENDROOT
BRANCH   1  13
ATOM     13  N   UNL d   1     -30.261  21.987  22.230  0.00  0.00    -0.159 N 
ATOM     14  N   UNL d   1     -31.235  22.058  21.224  0.00  0.00    -0.145 NA
ATOM     15  C   UNL d   1     -32.394  21.883  21.773  0.00  0.00     0.154 A 
ATOM     16  N   UNL d   1     -32.221  21.698  23.123  0.00  0.00    -0.283 N 
ATOM     17  C   UNL d   1     -30.904  21.764  23.395  0.00  0.00     0.352 A 
ATOM     18  O   UNL d   1     -30.386  21.648  24.492  0.00  0.00    -0.244 OA
BRANCH  15  19
ATOM     19  C   UNL d   1     -33.716  21.884  21.050  0.00  0.00     0.244 C 
BRANCH  19  20
ATOM     20  O   UNL d   1     -34.497  22.999  21.486  0.00  0.00    -0.393 OA
ATOM     21  H   UNL d   1     -34.150  23.857  21.204  0.00  0.00     0.209 HD
ENDBRANCH  19  20
ENDBRANCH  15  19
BRANCH  16  22
ATOM     22  C   UNL d   1     -33.289  21.469  24.100  0.00  0.00     0.131 C 
ATOM     23  C   UNL d   1     -33.298  19.995  24.510  0.00  0.00     0.027 C 
ENDBRANCH  16  22
ENDBRANCH   1  13
BRANCH   4  24
ATOM     24  C   UNL d   1     -26.807  24.602  24.812  0.00  0.00     0.014 C 
ATOM     25  C   UNL d   1     -26.941  23.658  26.009  0.00  0.00     0.015 C 
ATOM     26  C   UNL d   1     -25.982  25.825  25.216  0.00  0.00     0.015 C 
ENDBRANCH   4  24
BRANCH   6  27
ATOM     27  C   UNL d   1     -22.741  23.561  22.385  0.00  0.00     0.109 A 
ATOM     28  C   UNL d   1     -22.111  24.264  21.430  0.00  0.00     0.065 A 
ATOM     29  N   UNL d   1     -20.799  24.286  21.548  0.00  0.00    -0.256 NA
ATOM     30  C   UNL d   1     -22.843  24.970  20.317  0.00  0.00     0.073 C 
ATOM     31  C   UNL d   1     -20.286  23.646  22.543  0.00  0.00     0.168 A 
ATOM     32  S   UNL d   1     -21.518  22.917  23.478  0.00  0.00    -0.062 SA
ENDBRANCH   6  27
TORSDOF 6
ENDMDL
