MODEL 1
REMARK VINA RESULT:      -9.9      0.000      0.000
REMARK  9 active torsions:
REMARK  status: ('A' for Active; 'I' for Inactive)
REMARK    1  A    between atoms: O_2  and  C_3 
REMARK    2  A    between atoms: C_9  and  N_10 
REMARK       I    between atoms: N_10  and  C_11 
REMARK    3  A    between atoms: C_11  and  C_13 
REMARK    4  A    between atoms: C_17  and  N_18 
REMARK    5  A    between atoms: C_20  and  C_21 
REMARK    6  A    between atoms: C_21  and  O_23 
REMARK    7  A    between atoms: C_29  and  O_30 
REMARK    8  A    between atoms: O_30  and  C_31 
REMARK    9  A    between atoms: C_31  and  C_33 
ROOT
ATOM      1  C   UNL d   1     -24.090  24.644  23.587  0.00  0.00     0.068 A 
ATOM      2  C   UNL d   1     -25.015  25.140  24.513  0.00  0.00     0.064 A 
ATOM      3  C   UNL d   1     -26.253  24.549  24.632  0.00  0.00     0.146 A 
ATOM      4  F   UNL d   1     -27.145  25.028  25.526  0.00  0.00    -0.204 F 
ATOM      5  C   UNL d   1     -26.589  23.458  23.830  0.00  0.00     0.104 A 
ATOM      6  C   UNL d   1     -25.675  22.957  22.914  0.00  0.00     0.073 A 
ATOM      7  C   UNL d   1     -24.430  23.547  22.782  0.00  0.00     0.087 A 
ENDROOT
BRANCH   1   8
ATOM      8  C   UNL d   1     -22.765  25.274  23.457  0.00  0.00     0.259 C 
ATOM      9  N   UNL d   1     -21.682  24.684  24.004  0.00  0.00    -0.319 N 
ATOM     10  H   UNL d   1     -21.762  23.807  24.410  0.00  0.00     0.169 HD
ATOM     11  O   UNL d   1     -22.646  26.325  22.857  0.00  0.00    -0.267 OA
BRANCH   9  12
ATOM     12  C   UNL d   1     -20.444  25.340  23.985  0.00  0.00     0.094 A 
ATOM     13  C   UNL d   1     -20.134  26.294  24.953  0.00  0.00     0.191 A 
ATOM     14  N   UNL d   1     -18.964  26.910  24.939  0.00  0.00    -0.235 NA
ATOM     15  C   UNL d   1     -18.058  26.656  24.013  0.00  0.00     0.120 A 
ATOM     16  C   UNL d   1     -18.297  25.727  23.020  0.00  0.00     0.028 A 
ATOM     17  C   UNL d   1     -19.509  25.052  22.998  0.00  0.00    -0.029 A 
ATOM     18  C   UNL d   1     -19.806  24.033  21.929  0.00  0.00     0.050 C 
BRANCH  13  19
ATOM     19  O   UNL d   1     -21.038  26.591  25.921  0.00  0.00    -0.338 OA
ATOM     20  C   UNL d   1     -21.528  27.933  25.963  0.00  0.00     0.211 C 
ENDBRANCH  13  19
ENDBRANCH   9  12
ENDBRANCH   1   8
BRANCH   7  21
ATOM     21  O   UNL d   1     -23.539  23.062  21.882  0.00  0.00    -0.336 OA
BRANCH  21  22
ATOM     22  C   UNL d   1     -23.819  23.295  20.500  0.00  0.00     0.232 C 
ATOM     23  C   UNL d   1     -22.527  23.680  19.777  0.00  0.00     0.049 C 
BRANCH  22  24
ATOM     24  C   UNL d   1     -24.395  22.024  19.875  0.00  0.00     0.413 C 
ATOM     25  F   UNL d   1     -23.778  21.790  18.641  0.00  0.00    -0.168 F 
ATOM     26  F   UNL d   1     -24.160  20.938  20.727  0.00  0.00    -0.168 F 
ATOM     27  F   UNL d   1     -25.772  22.179  19.686  0.00  0.00    -0.168 F 
ENDBRANCH  22  24
ENDBRANCH  21  22
ENDBRANCH   7  21
BRANCH   5  28
ATOM     28  N   UNL d   1     -27.847  22.864  23.956  0.00  0.00    -0.178 N 
ATOM     29  C   UNL d   1     -28.297  22.162  25.017  0.00  0.00     0.351 A 
ATOM     30  N   UNL d   1     -29.553  21.765  24.733  0.00  0.00    -0.286 N 
ATOM     31  O   UNL d   1     -27.682  21.931  26.042  0.00  0.00    -0.244 OA
ATOM     32  C   UNL d   1     -29.881  22.228  23.482  0.00  0.00     0.159 A 
ATOM     33  C   UNL d   1     -30.421  20.975  25.609  0.00  0.00     0.163 C 
ATOM     34  N   UNL d   1     -28.873  22.882  23.002  0.00  0.00    -0.146 NA
BRANCH  32  35
ATOM     35  C   UNL d   1     -31.197  22.006  22.782  0.00  0.00     0.185 C 
ATOM     36  C   UNL d   1     -31.020  22.236  21.279  0.00  0.00     0.048 C 
BRANCH  35  37
ATOM     37  O   UNL d   1     -32.169  22.919  23.293  0.00  0.00    -0.388 OA
ATOM     38  H   UNL d   1     -32.528  22.671  24.156  0.00  0.00     0.210 HD
ENDBRANCH  35  37
ENDBRANCH  32  35
ENDBRANCH   5  28
TORSDOF 9
ENDMDL
