MODEL 1
REMARK VINA RESULT:     -11.0      0.000      0.000
REMARK  7 active torsions:
REMARK  status: ('A' for Active; 'I' for Inactive)
REMARK    1  A    between atoms: C_3  and  N_4 
REMARK       I    between atoms: N_4  and  C_5 
REMARK    2  A    between atoms: C_5  and  C_7 
REMARK    3  A    between atoms: C_11  and  N_12 
REMARK    4  A    between atoms: C_23  and  O_24 
REMARK    5  A    between atoms: O_24  and  C_25 
REMARK    6  A    between atoms: C_25  and  C_27 
REMARK    7  A    between atoms: C_34  and  C_35 
ROOT
ATOM      1  C   UNL d   1     -24.328  24.380  23.465  0.00  0.00     0.068 A 
ATOM      2  C   UNL d   1     -25.194  24.887  24.439  0.00  0.00     0.064 A 
ATOM      3  C   UNL d   1     -26.452  24.346  24.588  0.00  0.00     0.146 A 
ATOM      4  F   UNL d   1     -27.288  24.836  25.529  0.00  0.00    -0.204 F 
ATOM      5  C   UNL d   1     -26.865  23.295  23.770  0.00  0.00     0.104 A 
ATOM      6  C   UNL d   1     -26.010  22.783  22.805  0.00  0.00     0.073 A 
ATOM      7  C   UNL d   1     -24.745  23.323  22.643  0.00  0.00     0.087 A 
ENDROOT
BRANCH   1   8
ATOM      8  C   UNL d   1     -22.981  24.953  23.302  0.00  0.00     0.259 C 
ATOM      9  N   UNL d   1     -21.915  24.332  23.846  0.00  0.00    -0.322 N 
ATOM     10  H   UNL d   1     -22.042  23.555  24.411  0.00  0.00     0.169 HD
ATOM     11  O   UNL d   1     -22.831  25.985  22.678  0.00  0.00    -0.267 OA
BRANCH   9  12
ATOM     12  C   UNL d   1     -20.625  24.810  23.593  0.00  0.00     0.041 A 
ATOM     13  C   UNL d   1     -20.003  25.651  24.508  0.00  0.00    -0.020 A 
ATOM     14  C   UNL d   1     -20.718  26.050  25.773  0.00  0.00     0.051 C 
ATOM     15  C   UNL d   1     -18.728  26.118  24.258  0.00  0.00     0.056 A 
ATOM     16  C   UNL d   1     -18.073  25.757  23.094  0.00  0.00     0.017 A 
ATOM     17  C   UNL d   1     -18.691  24.924  22.180  0.00  0.00     0.003 A 
ATOM     18  C   UNL d   1     -19.964  24.450  22.426  0.00  0.00     0.030 A 
BRANCH  15  19
ATOM     19  C   UNL d   1     -18.050  27.026  25.252  0.00  0.00     0.418 C 
ATOM     20  F   UNL d   1     -17.692  26.291  26.387  0.00  0.00    -0.166 F 
ATOM     21  F   UNL d   1     -16.903  27.578  24.671  0.00  0.00    -0.166 F 
ATOM     22  F   UNL d   1     -18.927  28.053  25.620  0.00  0.00    -0.166 F 
ENDBRANCH  15  19
ENDBRANCH   9  12
ENDBRANCH   1   8
BRANCH   7  23
ATOM     23  O   UNL d   1     -23.911  22.826  21.696  0.00  0.00    -0.336 OA
BRANCH  23  24
ATOM     24  C   UNL d   1     -24.000  23.395  20.387  0.00  0.00     0.232 C 
ATOM     25  C   UNL d   1     -22.610  23.845  19.932  0.00  0.00     0.049 C 
BRANCH  24  26
ATOM     26  C   UNL d   1     -24.542  22.349  19.412  0.00  0.00     0.413 C 
ATOM     27  F   UNL d   1     -25.834  21.976  19.799  0.00  0.00    -0.168 F 
ATOM     28  F   UNL d   1     -24.580  22.890  18.123  0.00  0.00    -0.168 F 
ATOM     29  F   UNL d   1     -23.709  21.225  19.422  0.00  0.00    -0.168 F 
ENDBRANCH  24  26
ENDBRANCH  23  24
ENDBRANCH   7  23
BRANCH   5  30
ATOM     30  N   UNL d   1     -28.142  22.751  23.927  0.00  0.00    -0.178 N 
ATOM     31  C   UNL d   1     -28.573  22.008  24.969  0.00  0.00     0.351 A 
ATOM     32  N   UNL d   1     -29.864  21.711  24.744  0.00  0.00    -0.284 N 
ATOM     33  O   UNL d   1     -27.913  21.669  25.935  0.00  0.00    -0.244 OA
ATOM     34  C   UNL d   1     -30.225  22.246  23.524  0.00  0.00     0.131 A 
ATOM     35  C   UNL d   1     -30.776  20.970  25.623  0.00  0.00     0.135 C 
ATOM     36  N   UNL d   1     -29.214  22.874  23.030  0.00  0.00    -0.149 NA
ATOM     37  C   UNL d   1     -31.597  22.085  22.912  0.00  0.00     0.081 C 
ATOM     38  C   UNL d   1     -32.569  21.669  24.025  0.00  0.00     0.009 C 
ATOM     39  C   UNL d   1     -31.970  20.486  24.793  0.00  0.00     0.021 C 
ENDBRANCH   5  30
TORSDOF 7
ENDMDL
