MODEL 1
REMARK VINA RESULT:     -10.9      0.000      0.000
REMARK  6 active torsions:
REMARK  status: ('A' for Active; 'I' for Inactive)
REMARK    1  A    between atoms: C_8  and  N_9 
REMARK       I    between atoms: N_9  and  C_10 
REMARK    2  A    between atoms: C_10  and  C_12 
REMARK    3  A    between atoms: C_16  and  N_17 
REMARK    4  A    between atoms: C_28  and  O_29 
REMARK    5  A    between atoms: O_29  and  C_30 
REMARK    6  A    between atoms: C_30  and  C_32 
ROOT
ATOM      1  C   UNL d   1     -24.210  24.430  23.444  0.00  0.00     0.068 A 
ATOM      2  C   UNL d   1     -25.069  24.937  24.425  0.00  0.00     0.064 A 
ATOM      3  C   UNL d   1     -26.331  24.406  24.574  0.00  0.00     0.146 A 
ATOM      4  F   UNL d   1     -27.162  24.899  25.518  0.00  0.00    -0.204 F 
ATOM      5  C   UNL d   1     -26.750  23.355  23.759  0.00  0.00     0.104 A 
ATOM      6  C   UNL d   1     -25.904  22.846  22.783  0.00  0.00     0.073 A 
ATOM      7  C   UNL d   1     -24.636  23.377  22.621  0.00  0.00     0.087 A 
ENDROOT
BRANCH   1   8
ATOM      8  C   UNL d   1     -22.862  25.000  23.276  0.00  0.00     0.259 C 
ATOM      9  N   UNL d   1     -21.794  24.373  23.808  0.00  0.00    -0.319 N 
ATOM     10  H   UNL d   1     -21.901  23.506  24.228  0.00  0.00     0.169 HD
ATOM     11  O   UNL d   1     -22.713  26.037  22.659  0.00  0.00    -0.267 OA
BRANCH   9  12
ATOM     12  C   UNL d   1     -20.524  24.977  23.754  0.00  0.00     0.085 A 
ATOM     13  C   UNL d   1     -19.553  24.768  22.765  0.00  0.00     0.079 A 
ATOM     14  C   UNL d   1     -19.689  23.858  21.572  0.00  0.00     0.075 C 
ATOM     15  N   UNL d   1     -18.508  25.501  23.054  0.00  0.00    -0.175 NA
ATOM     16  N   UNL d   1     -18.774  26.202  24.237  0.00  0.00    -0.276 N 
ATOM     17  C   UNL d   1     -17.866  27.136  24.908  0.00  0.00     0.179 C 
ATOM     18  C   UNL d   1     -20.025  25.868  24.648  0.00  0.00     0.055 A 
ATOM     19  C   UNL d   1     -20.728  26.390  25.874  0.00  0.00     0.072 C 
ENDBRANCH   9  12
ENDBRANCH   1   8
BRANCH   7  20
ATOM     20  O   UNL d   1     -23.809  22.881  21.667  0.00  0.00    -0.336 OA
BRANCH  20  21
ATOM     21  C   UNL d   1     -23.956  23.401  20.344  0.00  0.00     0.232 C 
ATOM     22  C   UNL d   1     -22.592  23.857  19.821  0.00  0.00     0.049 C 
BRANCH  21  23
ATOM     23  C   UNL d   1     -24.516  22.312  19.427  0.00  0.00     0.413 C 
ATOM     24  F   UNL d   1     -24.596  22.801  18.119  0.00  0.00    -0.168 F 
ATOM     25  F   UNL d   1     -23.671  21.197  19.458  0.00  0.00    -0.168 F 
ATOM     26  F   UNL d   1     -25.792  21.942  19.865  0.00  0.00    -0.168 F 
ENDBRANCH  21  23
ENDBRANCH  20  21
ENDBRANCH   7  20
BRANCH   5  27
ATOM     27  N   UNL d   1     -28.029  22.818  23.919  0.00  0.00    -0.178 N 
ATOM     28  C   UNL d   1     -28.453  22.053  24.950  0.00  0.00     0.351 A 
ATOM     29  N   UNL d   1     -29.748  21.772  24.735  0.00  0.00    -0.284 N 
ATOM     30  O   UNL d   1     -27.782  21.685  25.897  0.00  0.00    -0.244 OA
ATOM     31  C   UNL d   1     -30.121  22.338  23.533  0.00  0.00     0.131 A 
ATOM     32  C   UNL d   1     -30.654  21.018  25.607  0.00  0.00     0.135 C 
ATOM     33  N   UNL d   1     -29.112  22.969  23.039  0.00  0.00    -0.149 NA
ATOM     34  C   UNL d   1     -31.502  22.202  22.936  0.00  0.00     0.081 C 
ATOM     35  C   UNL d   1     -32.462  21.768  24.051  0.00  0.00     0.009 C 
ATOM     36  C   UNL d   1     -31.863  20.561  24.783  0.00  0.00     0.021 C 
ENDBRANCH   5  27
TORSDOF 6
ENDMDL
