MODEL 1
REMARK VINA RESULT:      -8.9      0.000      0.000
REMARK  3 active torsions:
REMARK  status: ('A' for Active; 'I' for Inactive)
REMARK    1  A    between atoms: C_6  and  N_7 
REMARK    2  A    between atoms: N_7  and  C_8 
REMARK    3  A    between atoms: C_11  and  C_12 
ROOT
ATOM      1  C   UNL d   1     -33.247  22.212  22.583  0.00  0.00     0.074 C 
ATOM      2  C   UNL d   1     -31.739  22.211  22.598  0.00  0.00     0.075 A 
ATOM      3  N   UNL d   1     -30.964  22.401  21.568  0.00  0.00    -0.177 NA
ATOM      4  N   UNL d   1     -29.629  22.328  21.978  0.00  0.00    -0.261 N 
ATOM      5  H   UNL d   1     -28.853  22.434  21.404  0.00  0.00     0.191 HD
ATOM      6  C   UNL d   1     -29.601  22.084  23.304  0.00  0.00     0.145 A 
ATOM      7  C   UNL d   1     -30.923  21.999  23.733  0.00  0.00     0.115 A 
ATOM      8  C   UNL d   1     -31.370  21.746  25.070  0.00  0.00     0.105 C 
ATOM      9  N   UNL d   1     -31.725  21.545  26.130  0.00  0.00    -0.191 NA
ENDROOT
BRANCH   6  10
ATOM     10  N   UNL d   1     -28.472  21.941  24.090  0.00  0.00    -0.340 N 
ATOM     11  H   UNL d   1     -28.529  21.482  24.942  0.00  0.00     0.167 HD
BRANCH  10  12
ATOM     12  C   UNL d   1     -27.249  22.462  23.657  0.00  0.00     0.033 A 
ATOM     13  C   UNL d   1     -26.531  21.813  22.660  0.00  0.00     0.030 A 
ATOM     14  C   UNL d   1     -25.322  22.330  22.235  0.00  0.00     0.010 A 
ATOM     15  C   UNL d   1     -24.828  23.491  22.800  0.00  0.00    -0.051 A 
ATOM     16  C   UNL d   1     -25.541  24.138  23.793  0.00  0.00     0.010 A 
ATOM     17  C   UNL d   1     -26.752  23.630  24.220  0.00  0.00     0.030 A 
BRANCH  15  18
ATOM     18  C   UNL d   1     -23.509  24.052  22.334  0.00  0.00    -0.024 C 
ATOM     19  C   UNL d   1     -23.424  25.532  22.713  0.00  0.00     0.019 C 
ATOM     20  C   UNL d   1     -22.364  23.288  23.001  0.00  0.00     0.019 C 
ATOM     21  C   UNL d   1     -23.403  23.908  20.815  0.00  0.00     0.019 C 
ENDBRANCH  15  18
ENDBRANCH  10  12
ENDBRANCH   6  10
TORSDOF 3
ENDMDL
