MODEL 1
REMARK VINA RESULT:     -10.2      0.000      0.000
REMARK  4 active torsions:
REMARK  status: ('A' for Active; 'I' for Inactive)
REMARK    1  A    between atoms: C_2  and  C_4 
REMARK    2  A    between atoms: C_7  and  C_8 
REMARK    3  A    between atoms: C_10  and  C_11 
REMARK    4  A    between atoms: C_11  and  O_13 
ROOT
ATOM      1  C   UNL d   1     -27.883  22.366  23.081  0.00  0.00     0.068 A 
ATOM      2  C   UNL d   1     -28.359  21.979  24.343  0.00  0.00     0.051 A 
ATOM      3  C   UNL d   1     -29.708  21.692  24.504  0.00  0.00     0.052 A 
ATOM      4  C   UNL d   1     -30.565  21.809  23.323  0.00  0.00     0.011 A 
ATOM      5  C   UNL d   1     -31.937  21.546  23.387  0.00  0.00     0.034 A 
ATOM      6  C   UNL d   1     -32.700  21.672  22.263  0.00  0.00     0.011 A 
ATOM      7 BR   UNL d   1     -34.555  21.310  22.348  0.00  0.00    -0.051 Br
ATOM      8  C   UNL d   1     -32.129  22.064  21.053  0.00  0.00     0.021 A 
ATOM      9  C   UNL d   1     -30.799  22.332  20.957  0.00  0.00     0.034 A 
ATOM     10  C   UNL d   1     -29.980  22.212  22.096  0.00  0.00     0.069 A 
ATOM     11  N   UNL d   1     -28.672  22.468  22.033  0.00  0.00    -0.247 NA
ENDROOT
BRANCH   1  12
ATOM     12  C   UNL d   1     -26.441  22.668  22.922  0.00  0.00    -0.007 A 
ATOM     13  C   UNL d   1     -25.677  21.969  21.989  0.00  0.00     0.014 A 
ATOM     14  C   UNL d   1     -24.335  22.255  21.845  0.00  0.00     0.008 A 
ATOM     15  C   UNL d   1     -23.746  23.233  22.625  0.00  0.00    -0.055 A 
ATOM     16  C   UNL d   1     -24.499  23.931  23.554  0.00  0.00     0.008 A 
ATOM     17  C   UNL d   1     -25.842  23.657  23.702  0.00  0.00     0.014 A 
BRANCH  15  18
ATOM     18  C   UNL d   1     -22.280  23.541  22.464  0.00  0.00     0.010 C 
ATOM     19  C   UNL d   1     -22.116  24.877  21.736  0.00  0.00     0.015 C 
ATOM     20  C   UNL d   1     -21.622  23.628  23.842  0.00  0.00     0.015 C 
ENDBRANCH  15  18
ENDBRANCH   1  12
BRANCH   3  21
ATOM     21  C   UNL d   1     -30.256  21.280  25.813  0.00  0.00     0.177 C 
ATOM     22  O   UNL d   1     -30.878  22.075  26.488  0.00  0.00    -0.646 OA
BRANCH  21  23
ATOM     23  O   UNL d   1     -30.063  20.024  26.258  0.00  0.00    -0.773 OA
ATOM     24  H   UNL d   1     -29.437  19.906  26.986  0.00  0.00     0.167 HD
ENDBRANCH  21  23
ENDBRANCH   3  21
TORSDOF 4
ENDMDL
