MODEL 1
REMARK VINA RESULT:     -10.6      0.000      0.000
REMARK  6 active torsions:
REMARK  status: ('A' for Active; 'I' for Inactive)
REMARK    1  A    between atoms: C_8  and  N_9 
REMARK       I    between atoms: N_9  and  C_10 
REMARK    2  A    between atoms: C_10  and  C_12 
REMARK    3  A    between atoms: C_16  and  N_17 
REMARK    4  A    between atoms: C_29  and  O_30 
REMARK    5  A    between atoms: O_30  and  C_31 
REMARK    6  A    between atoms: C_31  and  C_33 
ROOT
ATOM      1  C   UNL d   1     -24.084  24.599  23.551  0.00  0.00     0.068 A 
ATOM      2  C   UNL d   1     -25.039  25.049  24.470  0.00  0.00     0.064 A 
ATOM      3  C   UNL d   1     -26.277  24.452  24.521  0.00  0.00     0.146 A 
ATOM      4  F   UNL d   1     -27.201  24.890  25.405  0.00  0.00    -0.204 F 
ATOM      5  C   UNL d   1     -26.581  23.391  23.668  0.00  0.00     0.104 A 
ATOM      6  C   UNL d   1     -25.638  22.935  22.758  0.00  0.00     0.073 A 
ATOM      7  C   UNL d   1     -24.390  23.532  22.693  0.00  0.00     0.087 A 
ENDROOT
BRANCH   1   8
ATOM      8  C   UNL d   1     -22.759  25.238  23.490  0.00  0.00     0.259 C 
ATOM      9  N   UNL d   1     -21.711  24.682  24.130  0.00  0.00    -0.320 N 
ATOM     10  H   UNL d   1     -21.819  23.833  24.588  0.00  0.00     0.169 HD
ATOM     11  O   UNL d   1     -22.608  26.269  22.861  0.00  0.00    -0.267 OA
BRANCH   9  12
ATOM     12  C   UNL d   1     -20.470  25.327  24.135  0.00  0.00     0.082 A 
ATOM     13  C   UNL d   1     -20.191  26.315  25.076  0.00  0.00    -0.031 A 
ATOM     14  C   UNL d   1     -21.217  26.712  26.105  0.00  0.00     0.050 C 
ATOM     15  C   UNL d   1     -18.945  26.920  25.045  0.00  0.00     0.028 A 
ATOM     16  C   UNL d   1     -18.028  26.531  24.087  0.00  0.00     0.119 A 
ATOM     17  N   UNL d   1     -18.324  25.594  23.206  0.00  0.00    -0.246 NA
ATOM     18  C   UNL d   1     -19.497  24.992  23.200  0.00  0.00     0.152 A 
ATOM     19 CL   UNL d   1     -19.828  23.767  22.017  0.00  0.00    -0.060 Cl
ENDBRANCH   9  12
ENDBRANCH   1   8
BRANCH   7  20
ATOM     20  O   UNL d   1     -23.467  23.087  21.804  0.00  0.00    -0.336 OA
BRANCH  20  21
ATOM     21  C   UNL d   1     -23.730  23.330  20.421  0.00  0.00     0.232 C 
ATOM     22  C   UNL d   1     -22.425  23.699  19.712  0.00  0.00     0.049 C 
BRANCH  21  23
ATOM     23  C   UNL d   1     -24.316  22.068  19.784  0.00  0.00     0.413 C 
ATOM     24  F   UNL d   1     -23.697  21.837  18.551  0.00  0.00    -0.168 F 
ATOM     25  F   UNL d   1     -24.096  20.975  20.628  0.00  0.00    -0.168 F 
ATOM     26  F   UNL d   1     -25.691  22.239  19.590  0.00  0.00    -0.168 F 
ENDBRANCH  21  23
ENDBRANCH  20  21
ENDBRANCH   7  20
BRANCH   5  27
ATOM     27  N   UNL d   1     -27.839  22.786  23.730  0.00  0.00    -0.178 N 
ATOM     28  C   UNL d   1     -28.308  22.015  24.737  0.00  0.00     0.351 A 
ATOM     29  N   UNL d   1     -29.549  21.644  24.410  0.00  0.00    -0.282 N 
ATOM     30  O   UNL d   1     -27.710  21.717  25.755  0.00  0.00    -0.244 OA
ATOM     31  C   UNL d   1     -29.854  22.183  23.167  0.00  0.00     0.155 A 
ATOM     32  C   UNL d   1     -30.503  20.812  25.158  0.00  0.00     0.137 C 
ATOM     33  N   UNL d   1     -28.847  22.863  22.754  0.00  0.00    -0.147 NA
ATOM     34  C   UNL d   1     -31.188  21.944  22.491  0.00  0.00     0.248 C 
ATOM     35  O   UNL d   1     -32.196  22.571  23.292  0.00  0.00    -0.384 OA
ATOM     36  C   UNL d   1     -32.670  21.832  24.397  0.00  0.00     0.169 C 
ATOM     37  C   UNL d   1     -31.692  21.701  25.542  0.00  0.00     0.046 C 
ENDBRANCH   5  27
TORSDOF 6
ENDMDL
