MODEL 1
REMARK VINA RESULT:      -8.3      0.000      0.000
REMARK  6 active torsions:
REMARK  status: ('A' for Active; 'I' for Inactive)
REMARK    1  A    between atoms: C_2  and  C_3 
REMARK    2  A    between atoms: C_3  and  O_4 
REMARK    3  A    between atoms: O_4  and  C_5 
REMARK    4  A    between atoms: C_5  and  C_7 
REMARK    5  A    between atoms: C_8  and  N_9 
REMARK    6  A    between atoms: N_9  and  C_10 
ROOT
ATOM      1  C   UNL d   1     -31.126  21.703  24.021  0.00  0.00     0.119 A 
ATOM      2  C   UNL d   1     -29.843  22.184  24.254  0.00  0.00     0.090 A 
ATOM      3  S   UNL d   1     -29.259  21.532  25.731  0.00  0.00    -0.103 SA
ATOM      4  C   UNL d   1     -30.749  20.554  26.105  0.00  0.00     0.165 A 
ATOM      5  C   UNL d   1     -31.677  20.831  24.948  0.00  0.00     0.177 A 
ATOM      6  O   UNL d   1     -32.787  20.347  24.844  0.00  0.00    -0.291 OA
ENDROOT
BRANCH   2   7
ATOM      7  N   UNL d   1     -29.160  23.041  23.441  0.00  0.00    -0.350 N 
ATOM      8  H   UNL d   1     -29.501  23.935  23.282  0.00  0.00     0.166 HD
BRANCH   7   9
ATOM      9  C   UNL d   1     -27.968  22.630  22.837  0.00  0.00     0.033 A 
ATOM     10  C   UNL d   1     -26.750  23.100  23.311  0.00  0.00     0.036 A 
ATOM     11  C   UNL d   1     -25.573  22.691  22.714  0.00  0.00    -0.054 A 
ATOM     12  C   UNL d   1     -25.608  21.819  21.641  0.00  0.00    -0.056 A 
ATOM     13  C   UNL d   1     -24.252  23.201  23.227  0.00  0.00     0.049 C 
ATOM     14  C   UNL d   1     -26.819  21.345  21.170  0.00  0.00     0.009 A 
ATOM     15  C   UNL d   1     -24.323  21.380  20.988  0.00  0.00     0.049 C 
ATOM     16  C   UNL d   1     -27.998  21.749  21.763  0.00  0.00     0.030 A 
ENDBRANCH   7   9
ENDBRANCH   2   7
BRANCH   1  17
ATOM     17  C   UNL d   1     -31.874  22.102  22.829  0.00  0.00     0.299 C 
ATOM     18  O   UNL d   1     -31.308  22.183  21.756  0.00  0.00    -0.259 OA
BRANCH  17  19
ATOM     19  O   UNL d   1     -33.191  22.381  22.920  0.00  0.00    -0.317 OA
BRANCH  19  20
ATOM     20  C   UNL d   1     -34.034  21.949  21.821  0.00  0.00     0.178 C 
BRANCH  20  21
ATOM     21  C   UNL d   1     -34.504  20.514  22.071  0.00  0.00     0.022 C 
ATOM     22  C   UNL d   1     -33.880  19.585  21.028  0.00  0.00     0.007 C 
ENDBRANCH  20  21
ENDBRANCH  19  20
ENDBRANCH  17  19
ENDBRANCH   1  17
TORSDOF 6
ENDMDL
