MODEL 1
REMARK VINA RESULT:     -10.6      0.000      0.000
REMARK  7 active torsions:
REMARK  status: ('A' for Active; 'I' for Inactive)
REMARK    1  A    between atoms: O_2  and  C_3 
REMARK    2  A    between atoms: C_6  and  N_7 
REMARK       I    between atoms: N_7  and  C_8 
REMARK    3  A    between atoms: C_8  and  C_10 
REMARK    4  A    between atoms: C_14  and  N_15 
REMARK    5  A    between atoms: C_26  and  O_27 
REMARK    6  A    between atoms: O_27  and  C_28 
REMARK    7  A    between atoms: C_28  and  C_30 
ROOT
ATOM      1  C   UNL d   1     -24.288  24.467  23.442  0.00  0.00     0.068 A 
ATOM      2  C   UNL d   1     -25.158  24.992  24.404  0.00  0.00     0.064 A 
ATOM      3  C   UNL d   1     -26.404  24.435  24.581  0.00  0.00     0.146 A 
ATOM      4  F   UNL d   1     -27.244  24.943  25.509  0.00  0.00    -0.204 F 
ATOM      5  C   UNL d   1     -26.804  23.348  23.803  0.00  0.00     0.104 A 
ATOM      6  C   UNL d   1     -25.945  22.817  22.852  0.00  0.00     0.073 A 
ATOM      7  C   UNL d   1     -24.690  23.373  22.662  0.00  0.00     0.087 A 
ENDROOT
BRANCH   1   8
ATOM      8  C   UNL d   1     -22.954  25.059  23.250  0.00  0.00     0.259 C 
ATOM      9  N   UNL d   1     -21.877  24.504  23.843  0.00  0.00    -0.321 N 
ATOM     10  H   UNL d   1     -21.993  23.764  24.461  0.00  0.00     0.169 HD
ATOM     11  O   UNL d   1     -22.821  26.050  22.558  0.00  0.00    -0.267 OA
BRANCH   9  12
ATOM     12  C   UNL d   1     -20.594  24.993  23.568  0.00  0.00     0.059 A 
ATOM     13  C   UNL d   1     -19.878  24.516  22.471  0.00  0.00     0.036 A 
ATOM     14  C   UNL d   1     -18.617  25.032  22.234  0.00  0.00     0.060 A 
ATOM     15  C   UNL d   1     -18.105  25.993  23.096  0.00  0.00     0.164 A 
ATOM     16  N   UNL d   1     -18.811  26.419  24.131  0.00  0.00    -0.228 NA
ATOM     17  C   UNL d   1     -20.019  25.954  24.385  0.00  0.00     0.060 A 
ATOM     18  C   UNL d   1     -20.781  26.473  25.576  0.00  0.00     0.073 C 
BRANCH  15  19
ATOM     19  O   UNL d   1     -16.865  26.502  22.875  0.00  0.00    -0.339 OA
ATOM     20  C   UNL d   1     -15.867  25.594  22.405  0.00  0.00     0.211 C 
ENDBRANCH  15  19
ENDBRANCH   9  12
ENDBRANCH   1   8
BRANCH   7  21
ATOM     21  O   UNL d   1     -23.852  22.858  21.728  0.00  0.00    -0.336 OA
BRANCH  21  22
ATOM     22  C   UNL d   1     -23.944  23.395  20.407  0.00  0.00     0.232 C 
ATOM     23  C   UNL d   1     -22.550  23.807  19.927  0.00  0.00     0.049 C 
BRANCH  22  24
ATOM     24  C   UNL d   1     -24.516  22.336  19.463  0.00  0.00     0.413 C 
ATOM     25  F   UNL d   1     -24.610  22.864  18.171  0.00  0.00    -0.168 F 
ATOM     26  F   UNL d   1     -23.674  21.219  19.451  0.00  0.00    -0.168 F 
ATOM     27  F   UNL d   1     -25.788  21.956  19.905  0.00  0.00    -0.168 F 
ENDBRANCH  22  24
ENDBRANCH  21  22
ENDBRANCH   7  21
BRANCH   5  28
ATOM     28  N   UNL d   1     -28.069  22.787  23.988  0.00  0.00    -0.178 N 
ATOM     29  C   UNL d   1     -28.461  22.020  25.028  0.00  0.00     0.351 A 
ATOM     30  N   UNL d   1     -29.754  21.714  24.836  0.00  0.00    -0.284 N 
ATOM     31  O   UNL d   1     -27.768  21.668  25.965  0.00  0.00    -0.244 OA
ATOM     32  C   UNL d   1     -30.158  22.269  23.639  0.00  0.00     0.131 A 
ATOM     33  C   UNL d   1     -30.632  20.947  25.726  0.00  0.00     0.135 C 
ATOM     34  N   UNL d   1     -29.169  22.917  23.126  0.00  0.00    -0.149 NA
ATOM     35  C   UNL d   1     -31.547  22.106  23.065  0.00  0.00     0.081 C 
ATOM     36  C   UNL d   1     -32.480  21.657  24.198  0.00  0.00     0.009 C 
ATOM     37  C   UNL d   1     -31.846  20.466  24.924  0.00  0.00     0.021 C 
ENDBRANCH   5  28
TORSDOF 7
ENDMDL
