MODEL 1
REMARK VINA RESULT:     -10.1      0.000      0.000
REMARK  7 active torsions:
REMARK  status: ('A' for Active; 'I' for Inactive)
REMARK    1  A    between atoms: C_2  and  C_3 
REMARK    2  A    between atoms: C_3  and  C_4 
REMARK    3  A    between atoms: C_4  and  O_5 
REMARK    4  A    between atoms: O_5  and  C_6 
REMARK    5  A    between atoms: C_10  and  C_11 
REMARK    6  A    between atoms: C_13  and  C_14 
REMARK    7  A    between atoms: C_14  and  O_16 
ROOT
ATOM      1  C   UNL d   1     -28.460  21.975  22.917  0.00  0.00     0.069 A 
ATOM      2  C   UNL d   1     -28.701  21.608  24.250  0.00  0.00     0.051 A 
ATOM      3  C   UNL d   1     -30.007  21.439  24.684  0.00  0.00     0.052 A 
ATOM      4  C   UNL d   1     -31.074  21.671  23.709  0.00  0.00     0.010 A 
ATOM      5  C   UNL d   1     -32.423  21.530  24.054  0.00  0.00     0.015 A 
ATOM      6  C   UNL d   1     -33.385  21.756  23.114  0.00  0.00     0.001 A 
ATOM      7  C   UNL d   1     -33.042  22.122  21.815  0.00  0.00     0.002 A 
ATOM      8  C   UNL d   1     -31.741  22.267  21.446  0.00  0.00     0.032 A 
ATOM      9  C   UNL d   1     -30.719  22.044  22.388  0.00  0.00     0.068 A 
ATOM     10  N   UNL d   1     -29.434  22.178  22.056  0.00  0.00    -0.247 NA
ENDROOT
BRANCH   1  11
ATOM     11  C   UNL d   1     -27.057  22.146  22.464  0.00  0.00    -0.005 A 
ATOM     12  C   UNL d   1     -26.621  21.523  21.295  0.00  0.00     0.014 A 
ATOM     13  C   UNL d   1     -25.315  21.683  20.875  0.00  0.00     0.004 A 
ATOM     14  C   UNL d   1     -24.439  22.458  21.610  0.00  0.00     0.037 A 
ATOM     15  C   UNL d   1     -24.866  23.081  22.776  0.00  0.00     0.069 A 
ATOM     16  C   UNL d   1     -26.175  22.932  23.202  0.00  0.00     0.050 A 
BRANCH  15  17
ATOM     17  O   UNL d   1     -24.000  23.843  23.494  0.00  0.00    -0.351 OA
BRANCH  17  18
ATOM     18  C   UNL d   1     -22.796  24.250  22.841  0.00  0.00     0.175 C 
BRANCH  18  19
ATOM     19  C   UNL d   1     -22.936  25.698  22.368  0.00  0.00     0.026 C 
BRANCH  19  20
ATOM     20  C   UNL d   1     -23.488  26.556  23.508  0.00  0.00    -0.002 C 
ATOM     21  C   UNL d   1     -22.334  27.031  24.394  0.00  0.00     0.005 C 
ENDBRANCH  19  20
ENDBRANCH  18  19
ENDBRANCH  17  18
ENDBRANCH  15  17
ENDBRANCH   1  11
BRANCH   3  22
ATOM     22  C   UNL d   1     -30.310  21.049  26.077  0.00  0.00     0.177 C 
ATOM     23  O   UNL d   1     -30.384  21.898  26.943  0.00  0.00    -0.646 OA
BRANCH  22  24
ATOM     24  O   UNL d   1     -30.505  19.752  26.386  0.00  0.00    -0.773 OA
ATOM     25  H   UNL d   1     -31.192  19.283  25.896  0.00  0.00     0.167 HD
ENDBRANCH  22  24
ENDBRANCH   3  22
TORSDOF 7
ENDMDL
