MODEL 1
REMARK VINA RESULT:      -9.7      0.000      0.000
REMARK  2 active torsions:
REMARK  status: ('A' for Active; 'I' for Inactive)
REMARK       I    between atoms: C_2  and  N_3 
REMARK    1  A    between atoms: C_2  and  C_11 
REMARK    2  A    between atoms: N_3  and  C_4 
ROOT
ATOM      1  O   UNL d   1     -26.836  22.758  25.658  0.00  0.00    -0.267 OA
ATOM      2  C   UNL d   1     -27.608  22.881  24.728  0.00  0.00     0.256 C 
ATOM      3  N   UNL d   1     -27.244  23.589  23.640  0.00  0.00    -0.320 N 
ATOM      4  H   UNL d   1     -27.887  23.755  22.933  0.00  0.00     0.169 HD
ENDROOT
BRANCH   2   5
ATOM      5  C   UNL d   1     -28.945  22.254  24.790  0.00  0.00     0.033 A 
ATOM      6  C   UNL d   1     -29.837  22.433  23.746  0.00  0.00     0.029 A 
ATOM      7  C   UNL d   1     -31.102  21.832  23.810  0.00  0.00    -0.025 A 
ATOM      8  C   UNL d   1     -31.453  21.060  24.946  0.00  0.00    -0.026 A 
ATOM      9  C   UNL d   1     -32.034  21.987  22.767  0.00  0.00     0.012 A 
ATOM     10  C   UNL d   1     -30.526  20.900  25.993  0.00  0.00     0.013 A 
ATOM     11  C   UNL d   1     -32.723  20.465  25.007  0.00  0.00     0.012 A 
ATOM     12  C   UNL d   1     -29.304  21.486  25.912  0.00  0.00     0.018 A 
ATOM     13  C   UNL d   1     -33.600  20.636  23.979  0.00  0.00     0.001 A 
ATOM     14  C   UNL d   1     -33.256  21.395  22.862  0.00  0.00     0.001 A 
ENDBRANCH   2   5
BRANCH   3  15
ATOM     15  C   UNL d   1     -25.940  24.084  23.532  0.00  0.00     0.073 A 
ATOM     16  C   UNL d   1     -24.940  23.299  22.966  0.00  0.00     0.143 A 
ATOM     17  C   UNL d   1     -23.652  23.791  22.866  0.00  0.00     0.044 A 
ATOM     18  F   UNL d   1     -25.228  22.057  22.520  0.00  0.00    -0.204 F 
ATOM     19  C   UNL d   1     -23.359  25.062  23.324  0.00  0.00     0.003 A 
ATOM     20  C   UNL d   1     -24.352  25.845  23.883  0.00  0.00     0.002 A 
ATOM     21  C   UNL d   1     -25.641  25.361  23.985  0.00  0.00     0.033 A 
ENDBRANCH   3  15
TORSDOF 2
ENDMDL
