MODEL 1
REMARK VINA RESULT:     -13.5      0.000      0.000
REMARK  4 active torsions:
REMARK  status: ('A' for Active; 'I' for Inactive)
REMARK    1  A    between atoms: N_15  and  C_16 
REMARK    2  A    between atoms: C_20  and  C_21 
REMARK    3  A    between atoms: C_23  and  C_24 
REMARK    4  A    between atoms: C_24  and  O_25 
ROOT
ATOM      1  C   UNL d   1     -26.833  22.656  23.949  0.00  0.00     0.066 A 
ATOM      2  C   UNL d   1     -26.193  21.767  23.095  0.00  0.00     0.075 A 
ATOM      3  C   UNL d   1     -25.056  22.159  22.415  0.00  0.00     0.132 A 
ATOM      4  F   UNL d   1     -24.433  21.293  21.585  0.00  0.00    -0.205 F 
ATOM      5  C   UNL d   1     -24.552  23.448  22.587  0.00  0.00     0.054 A 
ATOM      6  C   UNL d   1     -25.194  24.337  23.451  0.00  0.00     0.132 A 
ATOM      7  F   UNL d   1     -24.706  25.585  23.623  0.00  0.00    -0.205 F 
ATOM      8  C   UNL d   1     -26.334  23.941  24.123  0.00  0.00     0.075 A 
ENDROOT
BRANCH   1   9
ATOM      9  N   UNL d   1     -27.983  22.256  24.637  0.00  0.00    -0.209 N 
ATOM     10  C   UNL d   1     -29.227  22.109  24.100  0.00  0.00     0.146 A 
ATOM     11  C   UNL d   1     -29.780  22.278  22.750  0.00  0.00     0.214 A 
ATOM     12  C   UNL d   1     -30.041  21.699  25.150  0.00  0.00     0.164 A 
ATOM     13  C   UNL d   1     -31.216  22.021  22.506  0.00  0.00     0.031 A 
ATOM     14  O   UNL d   1     -29.060  22.633  21.837  0.00  0.00    -0.285 OA
ATOM     15  C   UNL d   1     -32.044  21.610  23.565  0.00  0.00     0.031 A 
ATOM     16  C   UNL d   1     -31.754  22.182  21.233  0.00  0.00     0.016 A 
ATOM     17  C   UNL d   1     -31.474  21.437  24.921  0.00  0.00     0.216 A 
ATOM     18  C   UNL d   1     -33.394  21.369  23.333  0.00  0.00     0.016 A 
ATOM     19  O   UNL d   1     -32.185  21.083  25.840  0.00  0.00    -0.285 OA
ATOM     20  C   UNL d   1     -33.914  21.534  22.061  0.00  0.00     0.001 A 
ATOM     21  C   UNL d   1     -33.101  21.938  21.019  0.00  0.00     0.001 A 
ATOM     22  N   UNL d   1     -29.249  21.635  26.227  0.00  0.00    -0.125 NA
ATOM     23  N   UNL d   1     -28.053  21.968  25.891  0.00  0.00    -0.059 NA
ENDBRANCH   1   9
BRANCH   5  24
ATOM     24  C   UNL d   1     -23.332  23.872  21.858  0.00  0.00     0.019 A 
ATOM     25  C   UNL d   1     -23.344  23.966  20.466  0.00  0.00     0.127 A 
ATOM     26  C   UNL d   1     -22.203  24.362  19.793  0.00  0.00     0.044 A 
ATOM     27  F   UNL d   1     -24.469  23.673  19.777  0.00  0.00    -0.205 F 
ATOM     28  C   UNL d   1     -21.053  24.667  20.497  0.00  0.00     0.012 A 
ATOM     29  C   UNL d   1     -21.034  24.569  21.878  0.00  0.00    -0.034 A 
ATOM     30  C   UNL d   1     -22.167  24.175  22.561  0.00  0.00     0.025 A 
BRANCH  29  31
ATOM     31  C   UNL d   1     -19.775  24.899  22.637  0.00  0.00     0.202 C 
BRANCH  31  32
ATOM     32  O   UNL d   1     -18.637  24.554  21.844  0.00  0.00    -0.396 OA
ATOM     33  H   UNL d   1     -18.552  23.606  21.670  0.00  0.00     0.209 HD
ENDBRANCH  31  32
ENDBRANCH  29  31
ENDBRANCH   5  24
TORSDOF 4
ENDMDL
