MODEL 1
REMARK VINA RESULT:     -10.3      0.000      0.000
REMARK  8 active torsions:
REMARK  status: ('A' for Active; 'I' for Inactive)
REMARK    1  A    between atoms: N_4  and  C_5 
REMARK    2  A    between atoms: C_7  and  O_8 
REMARK    3  A    between atoms: O_8  and  C_9 
REMARK    4  A    between atoms: C_9  and  C_11 
REMARK    5  A    between atoms: C_15  and  C_16 
REMARK       I    between atoms: C_16  and  N_18 
REMARK    6  A    between atoms: N_18  and  C_19 
REMARK    7  A    between atoms: C_23  and  C_24 
REMARK    8  A    between atoms: N_34  and  C_35 
ROOT
ATOM      1  C   UNL d   1     -29.155  22.075  24.159  0.00  0.00     0.104 A 
ATOM      2  C   UNL d   1     -28.538  22.213  22.924  0.00  0.00     0.073 A 
ATOM      3  C   UNL d   1     -27.247  22.703  22.845  0.00  0.00     0.087 A 
ATOM      4  C   UNL d   1     -26.563  23.059  24.018  0.00  0.00     0.068 A 
ATOM      5  C   UNL d   1     -27.190  22.912  25.259  0.00  0.00     0.064 A 
ATOM      6  C   UNL d   1     -28.478  22.428  25.326  0.00  0.00     0.146 A 
ATOM      7  F   UNL d   1     -29.084  22.291  26.525  0.00  0.00    -0.204 F 
ENDROOT
BRANCH   4   8
ATOM      8  C   UNL d   1     -25.188  23.581  23.941  0.00  0.00     0.259 C 
ATOM      9  O   UNL d   1     -24.252  22.881  24.279  0.00  0.00    -0.267 OA
ATOM     10  N   UNL d   1     -24.967  24.837  23.505  0.00  0.00    -0.323 N 
ATOM     11  H   UNL d   1     -25.703  25.366  23.159  0.00  0.00     0.169 HD
BRANCH  10  12
ATOM     12  C   UNL d   1     -23.678  25.377  23.550  0.00  0.00     0.035 A 
ATOM     13  C   UNL d   1     -22.663  24.817  22.787  0.00  0.00     0.045 A 
ATOM     14  C   UNL d   1     -21.389  25.352  22.834  0.00  0.00     0.050 A 
ATOM     15  C   UNL d   1     -21.127  26.445  23.639  0.00  0.00     0.016 A 
ATOM     16  C   UNL d   1     -22.138  27.005  24.401  0.00  0.00     0.003 A 
ATOM     17  C   UNL d   1     -23.413  26.478  24.354  0.00  0.00     0.029 A 
BRANCH  14  18
ATOM     18  C   UNL d   1     -20.286  24.745  22.006  0.00  0.00     0.417 C 
ATOM     19  F   UNL d   1     -19.068  25.346  22.340  0.00  0.00    -0.166 F 
ATOM     20  F   UNL d   1     -20.214  23.372  22.260  0.00  0.00    -0.166 F 
ATOM     21  F   UNL d   1     -20.553  24.955  20.649  0.00  0.00    -0.166 F 
ENDBRANCH  14  18
ENDBRANCH  10  12
ENDBRANCH   4   8
BRANCH   3  22
ATOM     22  O   UNL d   1     -26.643  22.839  21.637  0.00  0.00    -0.336 OA
BRANCH  22  23
ATOM     23  C   UNL d   1     -26.108  21.656  21.042  0.00  0.00     0.232 C 
ATOM     24  C   UNL d   1     -27.150  21.040  20.105  0.00  0.00     0.049 C 
BRANCH  23  25
ATOM     25  C   UNL d   1     -24.851  22.010  20.244  0.00  0.00     0.413 C 
ATOM     26  F   UNL d   1     -24.336  23.227  20.703  0.00  0.00    -0.168 F 
ATOM     27  F   UNL d   1     -23.894  21.004  20.413  0.00  0.00    -0.168 F 
ATOM     28  F   UNL d   1     -25.176  22.122  18.888  0.00  0.00    -0.168 F 
ENDBRANCH  23  25
ENDBRANCH  22  23
ENDBRANCH   3  22
BRANCH   1  29
ATOM     29  N   UNL d   1     -30.460  21.581  24.235  0.00  0.00    -0.178 N 
ATOM     30  N   UNL d   1     -30.989  20.788  25.263  0.00  0.00    -0.149 NA
ATOM     31  C   UNL d   1     -32.225  20.532  24.977  0.00  0.00     0.127 A 
ATOM     32  C   UNL d   1     -33.167  19.707  25.818  0.00  0.00     0.093 C 
ATOM     33  N   UNL d   1     -32.538  21.134  23.784  0.00  0.00    -0.280 N 
ATOM     34  C   UNL d   1     -31.446  21.783  23.337  0.00  0.00     0.351 A 
ATOM     35  O   UNL d   1     -31.362  22.431  22.308  0.00  0.00    -0.244 OA
BRANCH  33  36
ATOM     36  C   UNL d   1     -33.841  21.084  23.114  0.00  0.00     0.088 C 
ATOM     37  C   UNL d   1     -34.126  22.434  22.453  0.00  0.00     0.032 C 
ATOM     38  C   UNL d   1     -33.823  19.988  22.047  0.00  0.00     0.032 C 
ENDBRANCH  33  36
ENDBRANCH   1  29
TORSDOF 8
ENDMDL
