MODEL 1
REMARK VINA RESULT:     -11.3      0.000      0.000
REMARK  7 active torsions:
REMARK  status: ('A' for Active; 'I' for Inactive)
REMARK    1  A    between atoms: C_2  and  N_3 
REMARK    2  A    between atoms: C_4  and  C_5 
REMARK    3  A    between atoms: N_14  and  C_15 
REMARK    4  A    between atoms: C_17  and  O_18 
REMARK    5  A    between atoms: C_20  and  C_21 
REMARK       I    between atoms: C_21  and  N_23 
REMARK    6  A    between atoms: N_23  and  C_24 
REMARK    7  A    between atoms: C_28  and  C_29 
ROOT
ATOM      1  C   UNL d   1     -24.867  23.903  23.142  0.00  0.00     0.105 A 
ATOM      2  C   UNL d   1     -25.266  22.732  22.511  0.00  0.00     0.072 A 
ATOM      3  C   UNL d   1     -26.501  22.178  22.794  0.00  0.00     0.086 A 
ATOM      4  C   UNL d   1     -27.351  22.803  23.720  0.00  0.00     0.068 A 
ATOM      5  C   UNL d   1     -26.944  23.986  24.347  0.00  0.00     0.064 A 
ATOM      6  C   UNL d   1     -25.709  24.526  24.063  0.00  0.00     0.146 A 
ATOM      7  F   UNL d   1     -25.315  25.664  24.673  0.00  0.00    -0.204 F 
ENDROOT
BRANCH   1   8
ATOM      8  N   UNL d   1     -23.619  24.457  22.854  0.00  0.00    -0.177 N 
ATOM      9  N   UNL d   1     -22.638  24.820  23.787  0.00  0.00    -0.143 NA
ATOM     10  C   UNL d   1     -21.616  25.299  23.134  0.00  0.00     0.168 A 
ATOM     11  N   UNL d   1     -21.902  25.261  21.784  0.00  0.00    -0.280 N 
ATOM     12  C   UNL d   1     -23.133  24.735  21.627  0.00  0.00     0.351 A 
ATOM     13  O   UNL d   1     -23.705  24.548  20.569  0.00  0.00    -0.244 OA
BRANCH  10  14
ATOM     14  C   UNL d   1     -20.363  25.801  23.738  0.00  0.00     0.055 A 
ATOM     15  C   UNL d   1     -20.403  26.826  24.685  0.00  0.00     0.049 A 
ATOM     16  C   UNL d   1     -19.229  27.290  25.246  0.00  0.00     0.025 A 
ATOM     17 CL   UNL d   1     -21.924  27.517  25.156  0.00  0.00    -0.083 Cl
ATOM     18  C   UNL d   1     -18.015  26.740  24.872  0.00  0.00     0.003 A 
ATOM     19  C   UNL d   1     -17.969  25.723  23.936  0.00  0.00     0.025 A 
ATOM     20  C   UNL d   1     -19.136  25.247  23.370  0.00  0.00     0.049 A 
ATOM     21 CL   UNL d   1     -19.074  23.968  22.198  0.00  0.00    -0.083 Cl
ENDBRANCH  10  14
BRANCH  11  22
ATOM     22  C   UNL d   1     -21.016  25.708  20.706  0.00  0.00     0.131 C 
ATOM     23  C   UNL d   1     -21.142  24.757  19.514  0.00  0.00     0.027 C 
ENDBRANCH  11  22
ENDBRANCH   1   8
BRANCH   3  24
ATOM     24  O   UNL d   1     -26.892  21.033  22.178  0.00  0.00    -0.355 OA
ATOM     25  C   UNL d   1     -27.473  21.162  20.879  0.00  0.00     0.210 C 
ENDBRANCH   3  24
BRANCH   4  26
ATOM     26  C   UNL d   1     -28.668  22.221  24.025  0.00  0.00     0.259 C 
ATOM     27  O   UNL d   1     -28.754  21.281  24.793  0.00  0.00    -0.267 OA
ATOM     28  N   UNL d   1     -29.778  22.728  23.455  0.00  0.00    -0.323 N 
ATOM     29  H   UNL d   1     -29.720  23.525  22.904  0.00  0.00     0.169 HD
BRANCH  28  30
ATOM     30  C   UNL d   1     -31.016  22.109  23.660  0.00  0.00     0.035 A 
ATOM     31  C   UNL d   1     -31.908  21.970  22.605  0.00  0.00     0.045 A 
ATOM     32  C   UNL d   1     -33.129  21.359  22.811  0.00  0.00     0.050 A 
ATOM     33  C   UNL d   1     -33.464  20.885  24.066  0.00  0.00     0.016 A 
ATOM     34  C   UNL d   1     -32.578  21.022  25.119  0.00  0.00     0.003 A 
ATOM     35  C   UNL d   1     -31.353  21.628  24.918  0.00  0.00     0.029 A 
BRANCH  32  36
ATOM     36  C   UNL d   1     -34.098  21.207  21.667  0.00  0.00     0.417 C 
ATOM     37  F   UNL d   1     -35.124  20.331  22.038  0.00  0.00    -0.166 F 
ATOM     38  F   UNL d   1     -34.643  22.455  21.349  0.00  0.00    -0.166 F 
ATOM     39  F   UNL d   1     -33.427  20.693  20.553  0.00  0.00    -0.166 F 
ENDBRANCH  32  36
ENDBRANCH  28  30
ENDBRANCH   4  26
TORSDOF 7
ENDMDL
