MODEL 1
REMARK VINA RESULT:     -12.5      0.000      0.000
REMARK  4 active torsions:
REMARK  status: ('A' for Active; 'I' for Inactive)
REMARK       I    between atoms: C_2  and  N_3 
REMARK    1  A    between atoms: C_2  and  C_21 
REMARK    2  A    between atoms: N_3  and  C_4 
REMARK    3  A    between atoms: C_9  and  C_10 
REMARK    4  A    between atoms: C_22  and  O_23 
ROOT
ATOM      1  C   UNL d   1     -26.941  22.570  23.431  0.00  0.00     0.119 A 
ATOM      2  C   UNL d   1     -26.298  23.687  23.952  0.00  0.00     0.185 A 
ATOM      3  F   UNL d   1     -26.889  24.414  24.925  0.00  0.00    -0.200 F 
ATOM      4  C   UNL d   1     -25.051  24.053  23.478  0.00  0.00     0.171 A 
ATOM      5  F   UNL d   1     -24.424  25.136  23.988  0.00  0.00    -0.202 F 
ATOM      6  C   UNL d   1     -24.442  23.306  22.468  0.00  0.00     0.058 A 
ATOM      7  C   UNL d   1     -25.092  22.188  21.943  0.00  0.00     0.171 A 
ATOM      8  F   UNL d   1     -24.507  21.462  20.966  0.00  0.00    -0.202 F 
ATOM      9  C   UNL d   1     -26.337  21.823  22.425  0.00  0.00     0.185 A 
ATOM     10  F   UNL d   1     -26.966  20.741  21.918  0.00  0.00    -0.200 F 
ENDROOT
BRANCH   1  11
ATOM     11  N   UNL d   1     -28.200  22.198  23.916  0.00  0.00    -0.317 N 
ATOM     12  C   UNL d   1     -29.311  22.529  23.230  0.00  0.00     0.263 C 
ATOM     13  O   UNL d   1     -29.227  23.230  22.238  0.00  0.00    -0.267 OA
ATOM     14  H   UNL d   1     -28.272  21.702  24.747  0.00  0.00     0.169 HD
BRANCH  12  15
ATOM     15  C   UNL d   1     -30.618  22.047  23.677  0.00  0.00     0.115 A 
ATOM     16  C   UNL d   1     -31.761  21.853  22.875  0.00  0.00     0.078 A 
ATOM     17  N   UNL d   1     -32.753  21.399  23.697  0.00  0.00    -0.242 N 
ATOM     18  C   UNL d   1     -32.007  22.039  21.509  0.00  0.00     0.033 A 
ATOM     19  N   UNL d   1     -32.235  21.315  24.995  0.00  0.00    -0.141 NA
ATOM     20  C   UNL d   1     -33.984  21.116  23.189  0.00  0.00     0.119 A 
ATOM     21  C   UNL d   1     -30.982  21.700  24.995  0.00  0.00     0.200 A 
ATOM     22  C   UNL d   1     -34.245  21.290  21.873  0.00  0.00     0.019 A 
ATOM     23  C   UNL d   1     -33.247  21.758  21.009  0.00  0.00     0.004 A 
BRANCH  21  24
ATOM     24  O   UNL d   1     -30.167  21.747  26.079  0.00  0.00    -0.343 OA
ATOM     25  H   UNL d   1     -29.738  20.906  26.286  0.00  0.00     0.219 HD
ENDBRANCH  21  24
ENDBRANCH  12  15
ENDBRANCH   1  11
BRANCH   6  26
ATOM     26  C   UNL d   1     -23.109  23.698  21.954  0.00  0.00    -0.019 A 
ATOM     27  C   UNL d   1     -21.963  23.417  22.697  0.00  0.00     0.015 A 
ATOM     28  C   UNL d   1     -20.723  23.783  22.216  0.00  0.00     0.043 A 
ATOM     29  C   UNL d   1     -20.616  24.431  20.996  0.00  0.00     0.116 A 
ATOM     30  C   UNL d   1     -21.751  24.712  20.253  0.00  0.00     0.043 A 
ATOM     31  F   UNL d   1     -19.400  24.788  20.528  0.00  0.00    -0.206 F 
ATOM     32  C   UNL d   1     -22.994  24.344  20.724  0.00  0.00     0.015 A 
ENDBRANCH   6  26
TORSDOF 4
ENDMDL
