MODEL 1
REMARK VINA RESULT:     -10.3      0.000      0.000
REMARK  5 active torsions:
REMARK  status: ('A' for Active; 'I' for Inactive)
REMARK    1  A    between atoms: C_2  and  OXT_3 
REMARK    2  A    between atoms: C_2  and  CA_4 
REMARK    3  A    between atoms: C_13  and  C_14 
REMARK    4  A    between atoms: C_14  and  C_15 
REMARK    5  A    between atoms: C_15  and  C_16 
ROOT
ATOM      1  C   UNL d   1     -24.076  23.596  23.446  0.00  0.00     0.051 C 
ENDROOT
BRANCH   1   2
ATOM      2  C   UNL d   1     -25.174  22.893  22.688  0.00  0.00     0.044 A 
ATOM      3  CA  UNL d   1     -26.435  22.831  23.190  0.00  0.00     0.122 A 
ATOM      4  N   UNL d   1     -27.417  22.185  22.470  0.00  0.00    -0.302 N 
ATOM      5  H   UNL d   1     -28.319  22.144  22.826  0.00  0.00     0.171 HD
ATOM      6  C   UNL d   1     -27.149  21.609  21.287  0.00  0.00     0.327 A 
ATOM      7  O   UNL d   1     -28.044  21.046  20.686  0.00  0.00    -0.247 OA
ATOM      8  N   UNL d   1     -25.916  21.639  20.749  0.00  0.00    -0.275 N 
ATOM      9  H   UNL d   1     -25.754  21.213  19.893  0.00  0.00     0.173 HD
ATOM     10  C   UNL d   1     -24.904  22.256  21.394  0.00  0.00     0.258 A 
ATOM     11  O   UNL d   1     -23.789  22.285  20.909  0.00  0.00    -0.267 OA
BRANCH   3  12
ATOM     12  C   UNL d   1     -26.752  23.454  24.497  0.00  0.00     0.194 C 
ATOM     13  O   UNL d   1     -27.011  22.756  25.456  0.00  0.00    -0.645 OA
BRANCH  12  14
ATOM     14  OXT UNL d   1     -26.753  24.795  24.620  0.00  0.00    -0.772 OA
ATOM     15  HXT UNL d   1     -26.906  25.309  23.814  0.00  0.00     0.167 HD
ENDBRANCH  12  14
ENDBRANCH   3  12
ENDBRANCH   1   2
BRANCH   1  16
ATOM     16  C   UNL d   1     -23.753  24.925  22.762  0.00  0.00     0.044 C 
BRANCH  16  17
ATOM     17  C   UNL d   1     -22.554  25.553  23.426  0.00  0.00    -0.046 A 
ATOM     18  C   UNL d   1     -21.260  25.235  22.958  0.00  0.00    -0.019 A 
ATOM     19  C   UNL d   1     -20.127  25.817  23.571  0.00  0.00    -0.014 A 
ATOM     20  C   UNL d   1     -21.077  24.346  21.889  0.00  0.00     0.013 A 
ATOM     21  C   UNL d   1     -20.330  26.745  24.687  0.00  0.00    -0.015 A 
ATOM     22  C   UNL d   1     -18.849  25.501  23.106  0.00  0.00     0.013 A 
ATOM     23  C   UNL d   1     -21.650  27.023  25.108  0.00  0.00    -0.025 A 
ATOM     24  C   UNL d   1     -19.254  27.354  25.336  0.00  0.00     0.013 A 
ATOM     25  C   UNL d   1     -22.742  26.409  24.452  0.00  0.00     0.020 A 
ATOM     26  C   UNL d   1     -21.856  27.915  26.170  0.00  0.00     0.012 A 
ATOM     27  C   UNL d   1     -20.785  28.490  26.788  0.00  0.00     0.001 A 
ATOM     28  C   UNL d   1     -19.488  28.214  26.371  0.00  0.00     0.001 A 
ATOM     29  C   UNL d   1     -18.705  24.631  22.064  0.00  0.00     0.001 A 
ATOM     30  C   UNL d   1     -19.816  24.056  21.458  0.00  0.00     0.001 A 
ENDBRANCH  16  17
ENDBRANCH   1  16
TORSDOF 5
ENDMDL
