MODEL 1
REMARK VINA RESULT:     -11.8      0.000      0.000
REMARK  4 active torsions:
REMARK  status: ('A' for Active; 'I' for Inactive)
REMARK    1  A    between atoms: C_3  and  C_4 
REMARK    2  A    between atoms: C_7  and  C_8 
REMARK    3  A    between atoms: C_23  and  C_24 
REMARK    4  A    between atoms: C_24  and  O_26 
ROOT
ATOM      1  C   UNL d   1     -27.927  21.819  25.571  0.00  0.00     0.052 C 
ATOM      2  C   UNL d   1     -28.865  21.926  24.396  0.00  0.00    -0.014 A 
ATOM      3  C   UNL d   1     -28.394  22.365  23.148  0.00  0.00     0.076 A 
ATOM      4  N   UNL d   1     -29.180  22.472  22.097  0.00  0.00    -0.227 NA
ATOM      5  C   UNL d   1     -30.479  22.172  22.142  0.00  0.00     0.161 A 
ATOM      6  N   UNL d   1     -31.248  22.293  21.054  0.00  0.00    -0.241 NA
ATOM      7  C   UNL d   1     -32.525  21.995  21.083  0.00  0.00     0.119 A 
ATOM      8  C   UNL d   1     -33.149  21.551  22.246  0.00  0.00     0.020 A 
ATOM      9  C   UNL d   1     -32.421  21.405  23.395  0.00  0.00     0.018 A 
ATOM     10  C   UNL d   1     -31.055  21.719  23.355  0.00  0.00     0.029 A 
ATOM     11  C   UNL d   1     -30.205  21.591  24.537  0.00  0.00     0.060 A 
ENDROOT
BRANCH   3  12
ATOM     12  C   UNL d   1     -26.962  22.719  23.010  0.00  0.00    -0.007 A 
ATOM     13  C   UNL d   1     -26.135  21.966  22.175  0.00  0.00     0.014 A 
ATOM     14  C   UNL d   1     -24.803  22.295  22.047  0.00  0.00     0.013 A 
ATOM     15  C   UNL d   1     -24.282  23.381  22.751  0.00  0.00    -0.026 A 
ATOM     16  C   UNL d   1     -25.109  24.132  23.586  0.00  0.00     0.013 A 
ATOM     17  C   UNL d   1     -26.441  23.807  23.711  0.00  0.00     0.014 A 
BRANCH  15  18
ATOM     18  C   UNL d   1     -22.849  23.734  22.612  0.00  0.00    -0.026 A 
ATOM     19  C   UNL d   1     -22.354  24.179  21.387  0.00  0.00     0.012 A 
ATOM     20  C   UNL d   1     -21.019  24.506  21.263  0.00  0.00     0.001 A 
ATOM     21  C   UNL d   1     -20.172  24.392  22.350  0.00  0.00     0.000 A 
ATOM     22  C   UNL d   1     -20.657  23.950  23.567  0.00  0.00     0.001 A 
ATOM     23  C   UNL d   1     -21.992  23.626  23.705  0.00  0.00     0.012 A 
ENDBRANCH  15  18
ENDBRANCH   3  12
BRANCH  11  24
ATOM     24  C   UNL d   1     -30.750  21.124  25.830  0.00  0.00     0.177 C 
ATOM     25  O   UNL d   1     -31.385  21.886  26.530  0.00  0.00    -0.646 OA
BRANCH  24  26
ATOM     26  O   UNL d   1     -30.542  19.855  26.229  0.00  0.00    -0.773 OA
ATOM     27  H   UNL d   1     -30.671  19.663  27.169  0.00  0.00     0.167 HD
ENDBRANCH  24  26
ENDBRANCH  11  24
TORSDOF 4
ENDMDL
