MODEL 1
REMARK VINA RESULT:      -9.7      0.000      0.000
REMARK  9 active torsions:
REMARK  status: ('A' for Active; 'I' for Inactive)
REMARK    1  A    between atoms: C_2  and  N_3 
REMARK    2  A    between atoms: C_4  and  C_5 
REMARK    3  A    between atoms: C_5  and  O_6 
REMARK    4  A    between atoms: N_8  and  C_9 
REMARK    5  A    between atoms: C_11  and  O_12 
REMARK    6  A    between atoms: O_12  and  C_13 
REMARK    7  A    between atoms: C_13  and  C_15 
REMARK    8  A    between atoms: C_19  and  C_20 
REMARK       I    between atoms: C_20  and  N_22 
REMARK    9  A    between atoms: N_22  and  C_23 
ROOT
ATOM      1  C   UNL d   1     -26.554  23.552  23.737  0.00  0.00     0.197 A 
ATOM      2  N   UNL d   1     -25.659  23.078  22.883  0.00  0.00    -0.201 NA
ATOM      3  C   UNL d   1     -24.454  23.609  22.774  0.00  0.00     0.183 A 
ATOM      4  C   UNL d   1     -24.079  24.696  23.577  0.00  0.00     0.088 A 
ATOM      5  C   UNL d   1     -25.006  25.218  24.490  0.00  0.00     0.068 A 
ATOM      6  C   UNL d   1     -26.256  24.634  24.564  0.00  0.00     0.165 A 
ATOM      7  F   UNL d   1     -27.179  25.105  25.430  0.00  0.00    -0.202 F 
ENDROOT
BRANCH   4   8
ATOM      8  C   UNL d   1     -22.734  25.284  23.460  0.00  0.00     0.260 C 
ATOM      9  O   UNL d   1     -22.575  26.320  22.842  0.00  0.00    -0.267 OA
ATOM     10  N   UNL d   1     -21.679  24.675  24.037  0.00  0.00    -0.320 N 
ATOM     11  H   UNL d   1     -21.791  23.810  24.460  0.00  0.00     0.169 HD
BRANCH  10  12
ATOM     12  C   UNL d   1     -20.423  25.292  24.026  0.00  0.00     0.075 A 
ATOM     13  C   UNL d   1     -19.471  24.938  23.078  0.00  0.00     0.152 A 
ATOM     14  N   UNL d   1     -18.285  25.516  23.066  0.00  0.00    -0.239 NA
ATOM     15 CL   UNL d   1     -19.845  23.720  21.898  0.00  0.00    -0.060 Cl
ATOM     16  C   UNL d   1     -17.958  26.445  23.942  0.00  0.00     0.032 A 
ATOM     17  C   UNL d   1     -18.850  26.848  24.918  0.00  0.00     0.029 A 
ATOM     18  C   UNL d   1     -16.589  27.073  23.882  0.00  0.00     0.070 C 
ATOM     19  C   UNL d   1     -20.109  26.271  24.966  0.00  0.00     0.035 A 
ENDBRANCH  10  12
ENDBRANCH   4   8
BRANCH   3  20
ATOM     20  O   UNL d   1     -23.572  23.096  21.882  0.00  0.00    -0.319 OA
BRANCH  20  21
ATOM     21  C   UNL d   1     -23.867  23.282  20.497  0.00  0.00     0.234 C 
ATOM     22  C   UNL d   1     -22.583  23.637  19.744  0.00  0.00     0.049 C 
BRANCH  21  23
ATOM     23  C   UNL d   1     -24.455  21.992  19.923  0.00  0.00     0.413 C 
ATOM     24  F   UNL d   1     -23.827  21.692  18.709  0.00  0.00    -0.168 F 
ATOM     25  F   UNL d   1     -24.246  20.943  20.825  0.00  0.00    -0.168 F 
ATOM     26  F   UNL d   1     -25.827  22.158  19.710  0.00  0.00    -0.168 F 
ENDBRANCH  21  23
ENDBRANCH  20  21
ENDBRANCH   3  20
BRANCH   1  27
ATOM     27  N   UNL d   1     -27.812  22.959  23.810  0.00  0.00    -0.159 N 
ATOM     28  N   UNL d   1     -28.839  23.070  22.862  0.00  0.00    -0.145 NA
ATOM     29  C   UNL d   1     -29.849  22.377  23.280  0.00  0.00     0.154 A 
ATOM     30  N   UNL d   1     -29.528  21.812  24.490  0.00  0.00    -0.283 N 
ATOM     31  C   UNL d   1     -28.271  22.176  24.808  0.00  0.00     0.352 A 
ATOM     32  O   UNL d   1     -27.661  21.857  25.813  0.00  0.00    -0.244 OA
BRANCH  29  33
ATOM     33  C   UNL d   1     -31.164  22.221  22.559  0.00  0.00     0.244 C 
BRANCH  33  34
ATOM     34  O   UNL d   1     -30.953  22.347  21.151  0.00  0.00    -0.393 OA
ATOM     35  H   UNL d   1     -30.802  21.504  20.700  0.00  0.00     0.209 HD
ENDBRANCH  33  34
ENDBRANCH  29  33
BRANCH  30  36
ATOM     36  C   UNL d   1     -30.404  20.959  25.297  0.00  0.00     0.131 C 
ATOM     37  C   UNL d   1     -31.616  21.768  25.764  0.00  0.00     0.027 C 
ENDBRANCH  30  36
ENDBRANCH   1  27
TORSDOF 9
ENDMDL
