MODEL 1
REMARK VINA RESULT:     -12.7      0.000      0.000
REMARK  3 active torsions:
REMARK  status: ('A' for Active; 'I' for Inactive)
REMARK    1  A    between atoms: N_15  and  C_16 
REMARK    2  A    between atoms: C_19  and  C_20 
REMARK    3  A    between atoms: C_24  and  O_25 
ROOT
ATOM      1  O   UNL d   1     -32.235  20.993  25.955  0.00  0.00    -0.285 OA
ATOM      2  C   UNL d   1     -31.551  21.376  25.026  0.00  0.00     0.216 A 
ATOM      3  C   UNL d   1     -32.152  21.557  23.686  0.00  0.00     0.031 A 
ATOM      4  C   UNL d   1     -33.501  21.291  23.479  0.00  0.00     0.016 A 
ATOM      5  C   UNL d   1     -34.051  21.464  22.220  0.00  0.00     0.001 A 
ATOM      6  C   UNL d   1     -33.269  21.901  21.167  0.00  0.00     0.001 A 
ATOM      7  C   UNL d   1     -31.923  22.170  21.358  0.00  0.00     0.016 A 
ATOM      8  C   UNL d   1     -31.356  22.001  22.616  0.00  0.00     0.031 A 
ATOM      9  C   UNL d   1     -29.919  22.285  22.835  0.00  0.00     0.214 A 
ATOM     10  O   UNL d   1     -29.226  22.668  21.913  0.00  0.00    -0.285 OA
ATOM     11  C   UNL d   1     -29.334  22.102  24.170  0.00  0.00     0.146 A 
ATOM     12  C   UNL d   1     -30.119  21.663  25.231  0.00  0.00     0.164 A 
ATOM     13  N   UNL d   1     -29.304  21.600  26.291  0.00  0.00    -0.125 NA
ATOM     14  N   UNL d   1     -28.120  21.958  25.934  0.00  0.00    -0.059 NA
ATOM     15  N   UNL d   1     -28.084  22.271  24.685  0.00  0.00    -0.209 N 
ENDROOT
BRANCH  15  16
ATOM     16  C   UNL d   1     -26.957  22.704  23.980  0.00  0.00     0.060 A 
ATOM     17  C   UNL d   1     -26.394  21.889  23.004  0.00  0.00     0.032 A 
ATOM     18  C   UNL d   1     -25.287  22.316  22.303  0.00  0.00     0.014 A 
ATOM     19  C   UNL d   1     -24.724  23.561  22.582  0.00  0.00    -0.026 A 
ATOM     20  C   UNL d   1     -25.290  24.376  23.561  0.00  0.00     0.014 A 
ATOM     21  C   UNL d   1     -26.401  23.948  24.256  0.00  0.00     0.032 A 
BRANCH  19  22
ATOM     22  C   UNL d   1     -23.528  24.021  21.834  0.00  0.00    -0.023 A 
ATOM     23  C   UNL d   1     -22.484  24.651  22.508  0.00  0.00     0.048 A 
ATOM     24  C   UNL d   1     -21.372  25.084  21.803  0.00  0.00     0.066 A 
ATOM     25  C   UNL d   1     -21.299  24.885  20.431  0.00  0.00     0.036 A 
ATOM     26  C   UNL d   1     -22.333  24.254  19.764  0.00  0.00     0.004 A 
ATOM     27  C   UNL d   1     -23.444  23.819  20.458  0.00  0.00     0.012 A 
BRANCH  24  28
ATOM     28  O   UNL d   1     -20.354  25.705  22.454  0.00  0.00    -0.361 OA
ATOM     29  H   UNL d   1     -19.596  25.914  21.892  0.00  0.00     0.217 HD
ENDBRANCH  24  28
ENDBRANCH  19  22
ENDBRANCH  15  16
TORSDOF 3
ENDMDL
