MODEL 1
REMARK VINA RESULT:     -11.0      0.000      0.000
REMARK  6 active torsions:
REMARK  status: ('A' for Active; 'I' for Inactive)
REMARK    1  A    between atoms: C_5  and  N_6 
REMARK    2  A    between atoms: N_6  and  C_7 
REMARK    3  A    between atoms: C_10  and  C_11 
REMARK    4  A    between atoms: C_15  and  C_16 
REMARK    5  A    between atoms: C_23  and  C_24 
REMARK    6  A    between atoms: C_24  and  O_26 
ROOT
ATOM      1  C   UNL d   1     -27.985  22.190  24.173  0.00  0.00     0.050 A 
ATOM      2  C   UNL d   1     -27.210  21.895  23.050  0.00  0.00     0.033 A 
ATOM      3  C   UNL d   1     -26.109  22.687  22.784  0.00  0.00     0.035 A 
ATOM      4  C   UNL d   1     -25.805  23.739  23.646  0.00  0.00     0.067 A 
ATOM      5  N   UNL d   1     -26.562  23.987  24.706  0.00  0.00    -0.258 NA
ATOM      6  C   UNL d   1     -27.621  23.256  24.986  0.00  0.00     0.146 A 
ENDROOT
BRANCH   1   7
ATOM      7  N   UNL d   1     -29.110  21.420  24.476  0.00  0.00    -0.354 N 
ATOM      8  H   UNL d   1     -29.058  20.734  25.159  0.00  0.00     0.166 HD
BRANCH   7   9
ATOM      9  C   UNL d   1     -30.303  21.640  23.801  0.00  0.00     0.049 A 
ATOM     10  C   UNL d   1     -30.291  22.109  22.494  0.00  0.00     0.031 A 
ATOM     11  C   UNL d   1     -31.479  22.332  21.829  0.00  0.00     0.009 A 
ATOM     12  C   UNL d   1     -32.692  22.081  22.452  0.00  0.00    -0.061 A 
ATOM     13  C   UNL d   1     -33.981  22.323  21.710  0.00  0.00     0.048 C 
ATOM     14  C   UNL d   1     -32.724  21.615  23.748  0.00  0.00     0.027 A 
ATOM     15  C   UNL d   1     -31.530  21.390  24.438  0.00  0.00     0.064 A 
BRANCH  15  16
ATOM     16  C   UNL d   1     -31.558  20.893  25.825  0.00  0.00     0.178 C 
ATOM     17  O   UNL d   1     -32.318  19.996  26.134  0.00  0.00    -0.646 OA
BRANCH  16  18
ATOM     18  O   UNL d   1     -30.742  21.433  26.751  0.00  0.00    -0.773 OA
ATOM     19  H   UNL d   1     -30.576  22.383  26.689  0.00  0.00     0.167 HD
ENDBRANCH  16  18
ENDBRANCH  15  16
ENDBRANCH   7   9
ENDBRANCH   1   7
BRANCH   4  20
ATOM     20  C   UNL d   1     -24.622  24.592  23.373  0.00  0.00    -0.007 A 
ATOM     21  C   UNL d   1     -23.519  24.065  22.703  0.00  0.00     0.030 A 
ATOM     22  C   UNL d   1     -22.423  24.864  22.449  0.00  0.00     0.048 A 
ATOM     23  C   UNL d   1     -22.414  26.183  22.866  0.00  0.00     0.016 A 
ATOM     24  C   UNL d   1     -23.504  26.711  23.535  0.00  0.00     0.002 A 
ATOM     25  C   UNL d   1     -24.607  25.922  23.791  0.00  0.00     0.014 A 
BRANCH  22  26
ATOM     26  C   UNL d   1     -21.231  24.298  21.721  0.00  0.00     0.417 C 
ATOM     27  F   UNL d   1     -21.618  23.895  20.438  0.00  0.00    -0.166 F 
ATOM     28  F   UNL d   1     -20.236  25.276  21.622  0.00  0.00    -0.166 F 
ATOM     29  F   UNL d   1     -20.734  23.197  22.425  0.00  0.00    -0.166 F 
ENDBRANCH  22  26
ENDBRANCH   4  20
TORSDOF 6
ENDMDL
