MODEL 1
REMARK VINA RESULT:      -9.8      0.000      0.000
REMARK  6 active torsions:
REMARK  status: ('A' for Active; 'I' for Inactive)
REMARK    1  A    between atoms: C_2  and  N_3 
REMARK    2  A    between atoms: C_4  and  C_5 
REMARK    3  A    between atoms: C_5  and  O_6 
REMARK    4  A    between atoms: N_8  and  C_9 
REMARK    5  A    between atoms: N_15  and  C_16 
REMARK    6  A    between atoms: C_24  and  C_25 
ROOT
ATOM      1  C   UNL d   1     -26.222  23.335  24.210  0.00  0.00     0.064 A 
ATOM      2  C   UNL d   1     -26.412  23.035  25.560  0.00  0.00     0.033 A 
ATOM      3  C   UNL d   1     -27.562  22.437  25.988  0.00  0.00     0.020 A 
ATOM      4  C   UNL d   1     -28.562  22.122  25.067  0.00  0.00     0.046 A 
ATOM      5  C   UNL d   1     -29.816  21.481  25.475  0.00  0.00     0.279 A 
ATOM      6  O   UNL d   1     -30.020  21.203  26.643  0.00  0.00    -0.265 OA
ATOM      7  N   UNL d   1     -30.741  21.204  24.533  0.00  0.00    -0.197 N 
ATOM      8  N   UNL d   1     -30.535  21.511  23.187  0.00  0.00    -0.168 NA
ATOM      9  C   UNL d   1     -29.448  22.079  22.756  0.00  0.00     0.070 A 
ATOM     10  C   UNL d   1     -28.378  22.417  23.696  0.00  0.00     0.009 A 
ATOM     11  C   UNL d   1     -27.199  23.033  23.277  0.00  0.00     0.046 A 
ENDROOT
BRANCH   1  12
ATOM     12  N   UNL d   1     -25.036  23.947  23.798  0.00  0.00    -0.181 N 
ATOM     13  N   UNL d   1     -23.885  23.297  23.329  0.00  0.00    -0.147 NA
ATOM     14  C   UNL d   1     -23.000  24.198  23.047  0.00  0.00     0.154 A 
ATOM     15  N   UNL d   1     -23.529  25.438  23.314  0.00  0.00    -0.283 N 
ATOM     16  C   UNL d   1     -24.785  25.273  23.772  0.00  0.00     0.351 A 
ATOM     17  O   UNL d   1     -25.554  26.158  24.103  0.00  0.00    -0.244 OA
BRANCH  14  18
ATOM     18  C   UNL d   1     -21.617  23.931  22.511  0.00  0.00     0.244 C 
BRANCH  18  19
ATOM     19  O   UNL d   1     -21.604  24.137  21.097  0.00  0.00    -0.393 OA
ATOM     20  H   UNL d   1     -20.735  24.021  20.690  0.00  0.00     0.209 HD
ENDBRANCH  18  19
ENDBRANCH  14  18
BRANCH  15  21
ATOM     21  C   UNL d   1     -22.845  26.720  23.127  0.00  0.00     0.131 C 
ATOM     22  C   UNL d   1     -22.164  27.130  24.434  0.00  0.00     0.027 C 
ENDBRANCH  15  21
ENDBRANCH   1  12
BRANCH   9  23
ATOM     23  C   UNL d   1     -29.287  22.384  21.290  0.00  0.00     0.032 C 
ATOM     24  C   UNL d   1     -30.651  22.307  20.601  0.00  0.00     0.016 C 
ATOM     25  C   UNL d   1     -28.338  21.363  20.657  0.00  0.00     0.016 C 
ENDBRANCH   9  23
BRANCH   7  26
ATOM     26  C   UNL d   1     -31.940  20.592  24.914  0.00  0.00     0.065 A 
ATOM     27  C   UNL d   1     -31.918  19.435  25.681  0.00  0.00     0.074 A 
ATOM     28  C   UNL d   1     -33.106  18.833  26.055  0.00  0.00     0.118 A 
ATOM     29  C   UNL d   1     -34.315  19.383  25.666  0.00  0.00     0.042 A 
ATOM     30  F   UNL d   1     -33.086  17.707  26.803  0.00  0.00    -0.206 F 
ATOM     31  C   UNL d   1     -34.339  20.536  24.903  0.00  0.00     0.005 A 
ATOM     32  C   UNL d   1     -33.156  21.145  24.529  0.00  0.00     0.032 A 
ENDBRANCH   7  26
TORSDOF 6
ENDMDL
