MODEL 1
REMARK VINA RESULT:      -9.1      0.000      0.000
REMARK  6 active torsions:
REMARK  status: ('A' for Active; 'I' for Inactive)
REMARK    1  A    between atoms: C_2  and  O_3 
REMARK    2  A    between atoms: C_2  and  C_32 
REMARK    3  A    between atoms: O_3  and  C_4 
REMARK    4  A    between atoms: C_6  and  N_7 
REMARK    5  A    between atoms: C_20  and  C_21 
REMARK       I    between atoms: C_21  and  N_23 
REMARK    6  A    between atoms: N_23  and  C_24 
ROOT
ATOM      1  C   UNL d   1     -20.529  25.177  24.344  0.00  0.00     0.087 A 
ATOM      2  C   UNL d   1     -21.794  24.641  24.172  0.00  0.00     0.073 A 
ATOM      3  C   UNL d   1     -22.164  24.113  22.944  0.00  0.00     0.104 A 
ATOM      4  C   UNL d   1     -21.265  24.119  21.876  0.00  0.00     0.146 A 
ATOM      5  F   UNL d   1     -21.632  23.604  20.683  0.00  0.00    -0.204 F 
ATOM      6  C   UNL d   1     -20.005  24.651  22.037  0.00  0.00     0.064 A 
ATOM      7  C   UNL d   1     -19.625  25.190  23.271  0.00  0.00     0.068 A 
ENDROOT
BRANCH   7   8
ATOM      8  C   UNL d   1     -18.281  25.764  23.445  0.00  0.00     0.259 C 
ATOM      9  O   UNL d   1     -17.978  26.791  22.867  0.00  0.00    -0.267 OA
ATOM     10  N   UNL d   1     -17.386  25.153  24.246  0.00  0.00    -0.318 N 
ATOM     11  H   UNL d   1     -17.597  24.293  24.643  0.00  0.00     0.169 HD
BRANCH  10  12
ATOM     12  C   UNL d   1     -16.149  25.757  24.504  0.00  0.00     0.113 A 
ATOM     13  C   UNL d   1     -15.976  26.534  25.645  0.00  0.00     0.146 A 
ATOM     14  C   UNL d   1     -14.753  27.129  25.895  0.00  0.00     0.045 A 
ATOM     15  F   UNL d   1     -17.002  26.706  26.506  0.00  0.00    -0.204 F 
ATOM     16  C   UNL d   1     -13.703  26.953  25.014  0.00  0.00     0.006 A 
ATOM     17  C   UNL d   1     -13.870  26.182  23.879  0.00  0.00     0.045 A 
ATOM     18  C   UNL d   1     -15.088  25.578  23.624  0.00  0.00     0.146 A 
ATOM     19  F   UNL d   1     -15.249  24.820  22.516  0.00  0.00    -0.204 F 
ENDBRANCH  10  12
ENDBRANCH   7   8
BRANCH   1  20
ATOM     20  O   UNL d   1     -20.167  25.694  25.545  0.00  0.00    -0.345 OA
BRANCH  20  21
ATOM     21  C   UNL d   1     -20.291  27.108  25.708  0.00  0.00     0.129 C 
ATOM     22  C   UNL d   1     -21.709  27.542  25.330  0.00  0.00     0.040 C 
BRANCH  21  23
ATOM     23  C   UNL d   1     -20.015  27.479  27.166  0.00  0.00     0.015 C 
ATOM     24  C   UNL d   1     -21.010  28.550  27.616  0.00  0.00     0.007 C 
ATOM     25  C   UNL d   1     -20.733  28.923  29.075  0.00  0.00     0.000 C 
ATOM     26  C   UNL d   1     -20.886  27.681  29.955  0.00  0.00     0.000 C 
ATOM     27  C   UNL d   1     -19.892  26.609  29.504  0.00  0.00     0.000 C 
ATOM     28  C   UNL d   1     -20.168  26.237  28.047  0.00  0.00     0.007 C 
ENDBRANCH  21  23
ENDBRANCH  20  21
ENDBRANCH   1  20
BRANCH   3  29
ATOM     29  N   UNL d   1     -23.441  23.572  22.774  0.00  0.00    -0.178 N 
ATOM     30  C   UNL d   1     -24.588  24.049  23.305  0.00  0.00     0.351 A 
ATOM     31  N   UNL d   1     -25.586  23.259  22.876  0.00  0.00    -0.284 N 
ATOM     32  O   UNL d   1     -24.697  25.016  24.036  0.00  0.00    -0.244 OA
ATOM     33  C   UNL d   1     -25.043  22.257  22.098  0.00  0.00     0.131 A 
ATOM     34  C   UNL d   1     -27.021  23.410  23.140  0.00  0.00     0.135 C 
ATOM     35  N   UNL d   1     -23.769  22.438  22.015  0.00  0.00    -0.149 NA
ATOM     36  C   UNL d   1     -25.854  21.144  21.479  0.00  0.00     0.081 C 
ATOM     37  C   UNL d   1     -27.326  21.579  21.465  0.00  0.00     0.009 C 
ATOM     38  C   UNL d   1     -27.715  22.072  22.862  0.00  0.00     0.021 C 
ENDBRANCH   3  29
TORSDOF 6
ENDMDL
