MODEL 1
REMARK VINA RESULT:      -9.2      0.000      0.000
REMARK  3 active torsions:
REMARK  status: ('A' for Active; 'I' for Inactive)
REMARK    1  A    between atoms: C_3  and  C_4 
REMARK       I    between atoms: C_4  and  N_6 
REMARK    2  A    between atoms: N_6  and  C_7 
REMARK    3  A    between atoms: C_18  and  N_19 
ROOT
ATOM      1  C   UNL d   1     -29.030  22.479  22.488  0.00  0.00     0.256 C 
ATOM      2  O   UNL d   1     -28.864  23.499  21.847  0.00  0.00    -0.267 OA
ATOM      3  N   UNL d   1     -27.998  21.636  22.689  0.00  0.00    -0.323 N 
ATOM      4  H   UNL d   1     -28.147  20.784  23.128  0.00  0.00     0.169 HD
ENDROOT
BRANCH   1   5
ATOM      5  C   UNL d   1     -30.361  22.165  23.048  0.00  0.00     0.040 A 
ATOM      6  C   UNL d   1     -31.463  22.028  22.202  0.00  0.00    -0.013 A 
ATOM      7  C   UNL d   1     -31.298  22.199  20.714  0.00  0.00     0.052 C 
ATOM      8  C   UNL d   1     -32.702  21.731  22.731  0.00  0.00     0.109 A 
ATOM      9  C   UNL d   1     -32.855  21.579  24.098  0.00  0.00     0.037 A 
ATOM     10  C   UNL d   1     -31.768  21.719  24.942  0.00  0.00     0.003 A 
ATOM     11  C   UNL d   1     -30.523  22.011  24.426  0.00  0.00     0.018 A 
BRANCH   8  12
ATOM     12  N   UNL d   1     -33.871  21.580  21.836  0.00  0.00    -0.115 N 
ATOM     13  O   UNL d   1     -34.268  20.469  21.535  0.00  0.00    -0.532 OA
ATOM     14  O   UNL d   1     -34.434  22.568  21.400  0.00  0.00    -0.532 OA
ENDBRANCH   8  12
ENDBRANCH   1   5
BRANCH   3  15
ATOM     15  C   UNL d   1     -26.712  21.988  22.262  0.00  0.00     0.036 A 
ATOM     16  C   UNL d   1     -25.914  22.799  23.058  0.00  0.00     0.056 A 
ATOM     17  C   UNL d   1     -24.644  23.146  22.634  0.00  0.00     0.074 A 
ATOM     18  C   UNL d   1     -24.169  22.685  21.417  0.00  0.00     0.138 A 
ATOM     19 CL   UNL d   1     -23.645  24.161  23.627  0.00  0.00    -0.081 Cl
ATOM     20  C   UNL d   1     -24.963  21.872  20.625  0.00  0.00     0.046 A 
ATOM     21  F   UNL d   1     -22.929  23.024  21.005  0.00  0.00    -0.204 F 
ATOM     22  C   UNL d   1     -26.233  21.527  21.043  0.00  0.00     0.032 A 
ENDBRANCH   3  15
TORSDOF 3
ENDMDL
