MODEL 1
REMARK VINA RESULT:      -7.6      0.000      0.000
REMARK  7 active torsions:
REMARK  status: ('A' for Active; 'I' for Inactive)
REMARK    1  A    between atoms: O_2  and  C_3 
REMARK    2  A    between atoms: C_6  and  N_7 
REMARK       I    between atoms: N_7  and  C_8 
REMARK    3  A    between atoms: C_8  and  C_10 
REMARK    4  A    between atoms: C_14  and  N_15 
REMARK    5  A    between atoms: C_26  and  O_27 
REMARK    6  A    between atoms: O_27  and  C_28 
REMARK    7  A    between atoms: C_28  and  C_30 
ROOT
ATOM      1  C   UNL d   1     -20.585  27.377  25.581  0.00  0.00     0.068 A 
ATOM      2  C   UNL d   1     -21.879  27.665  25.134  0.00  0.00     0.064 A 
ATOM      3  C   UNL d   1     -22.511  26.807  24.261  0.00  0.00     0.146 A 
ATOM      4  F   UNL d   1     -23.763  27.084  23.832  0.00  0.00    -0.204 F 
ATOM      5  C   UNL d   1     -21.863  25.656  23.816  0.00  0.00     0.104 A 
ATOM      6  C   UNL d   1     -20.577  25.365  24.251  0.00  0.00     0.073 A 
ATOM      7  C   UNL d   1     -19.933  26.220  25.128  0.00  0.00     0.087 A 
ENDROOT
BRANCH   1   8
ATOM      8  C   UNL d   1     -19.909  28.288  26.519  0.00  0.00     0.259 C 
ATOM      9  N   UNL d   1     -18.627  28.647  26.304  0.00  0.00    -0.320 N 
ATOM     10  H   UNL d   1     -18.174  28.363  25.495  0.00  0.00     0.169 HD
ATOM     11  O   UNL d   1     -20.506  28.717  27.488  0.00  0.00    -0.267 OA
BRANCH   9  12
ATOM     12  C   UNL d   1     -17.950  29.428  27.250  0.00  0.00     0.070 A 
ATOM     13  C   UNL d   1     -17.864  30.810  27.105  0.00  0.00     0.152 A 
ATOM     14  N   UNL d   1     -17.217  31.513  28.018  0.00  0.00    -0.217 NA
ATOM     15  C   UNL d   1     -16.655  30.921  29.059  0.00  0.00     0.267 A 
ATOM     16  N   UNL d   1     -16.716  29.610  29.230  0.00  0.00    -0.217 NA
ATOM     17  C   UNL d   1     -17.352  28.841  28.362  0.00  0.00     0.152 A 
BRANCH  15  18
ATOM     18  O   UNL d   1     -16.000  31.675  29.974  0.00  0.00    -0.324 OA
ATOM     19  C   UNL d   1     -15.111  30.994  30.861  0.00  0.00     0.213 C 
ENDBRANCH  15  18
ENDBRANCH   9  12
ENDBRANCH   1   8
BRANCH   7  20
ATOM     20  O   UNL d   1     -18.675  25.938  25.555  0.00  0.00    -0.345 OA
BRANCH  20  21
ATOM     21  C   UNL d   1     -17.711  25.607  24.553  0.00  0.00     0.129 C 
ATOM     22  C   UNL d   1     -17.448  26.832  23.675  0.00  0.00     0.040 C 
BRANCH  21  23
ATOM     23  C   UNL d   1     -16.407  25.173  25.226  0.00  0.00     0.015 C 
ATOM     24  C   UNL d   1     -15.230  25.463  24.293  0.00  0.00     0.007 C 
ATOM     25  C   UNL d   1     -13.927  25.028  24.967  0.00  0.00     0.000 C 
ATOM     26  C   UNL d   1     -13.745  25.803  26.274  0.00  0.00     0.000 C 
ATOM     27  C   UNL d   1     -14.922  25.513  27.207  0.00  0.00     0.000 C 
ATOM     28  C   UNL d   1     -16.225  25.947  26.533  0.00  0.00     0.007 C 
ENDBRANCH  21  23
ENDBRANCH  20  21
ENDBRANCH   7  20
BRANCH   5  29
ATOM     29  N   UNL d   1     -22.509  24.791  22.930  0.00  0.00    -0.178 N 
ATOM     30  C   UNL d   1     -22.258  24.664  21.608  0.00  0.00     0.351 A 
ATOM     31  N   UNL d   1     -23.075  23.710  21.135  0.00  0.00    -0.284 N 
ATOM     32  O   UNL d   1     -21.441  25.300  20.966  0.00  0.00    -0.244 OA
ATOM     33  C   UNL d   1     -23.869  23.264  22.171  0.00  0.00     0.131 A 
ATOM     34  C   UNL d   1     -23.130  23.180  19.768  0.00  0.00     0.135 C 
ATOM     35  N   UNL d   1     -23.533  23.887  23.249  0.00  0.00    -0.149 NA
ATOM     36  C   UNL d   1     -24.951  22.222  22.010  0.00  0.00     0.081 C 
ATOM     37  C   UNL d   1     -24.687  21.461  20.705  0.00  0.00     0.009 C 
ATOM     38  C   UNL d   1     -24.476  22.471  19.571  0.00  0.00     0.021 C 
ENDBRANCH   5  29
TORSDOF 7
ENDMDL
