MODEL 1
REMARK VINA RESULT:     -11.9      0.000      0.000
REMARK  8 active torsions:
REMARK  status: ('A' for Active; 'I' for Inactive)
REMARK       I    between atoms: C_2  and  N_4 
REMARK    1  A    between atoms: N_4  and  C_5 
REMARK    2  A    between atoms: C_8  and  C_9 
REMARK    3  A    between atoms: C_9  and  O_10 
REMARK    4  A    between atoms: O_10  and  C_11 
REMARK    5  A    between atoms: C_14  and  C_15 
REMARK    6  A    between atoms: C_18  and  C_19 
REMARK    7  A    between atoms: C_22  and  C_23 
REMARK    8  A    between atoms: C_23  and  O_25 
ROOT
ATOM      1  C   UNL d   1     -25.344  22.966  23.014  0.00  0.00    -0.026 A 
ATOM      2  C   UNL d   1     -25.948  22.042  22.161  0.00  0.00     0.013 A 
ATOM      3  C   UNL d   1     -27.264  21.689  22.351  0.00  0.00     0.016 A 
ATOM      4  C   UNL d   1     -27.999  22.260  23.393  0.00  0.00     0.010 A 
ATOM      5  C   UNL d   1     -27.395  23.190  24.242  0.00  0.00     0.016 A 
ATOM      6  C   UNL d   1     -26.078  23.543  24.052  0.00  0.00     0.013 A 
ENDROOT
BRANCH   1   7
ATOM      7  C   UNL d   1     -23.924  23.341  22.814  0.00  0.00    -0.026 A 
ATOM      8  C   UNL d   1     -22.951  22.899  23.711  0.00  0.00     0.015 A 
ATOM      9  C   UNL d   1     -21.632  23.250  23.521  0.00  0.00     0.037 A 
ATOM     10  C   UNL d   1     -21.270  24.041  22.439  0.00  0.00     0.069 A 
ATOM     11  C   UNL d   1     -22.236  24.484  21.546  0.00  0.00     0.037 A 
ATOM     12  C   UNL d   1     -23.557  24.133  21.726  0.00  0.00     0.015 A 
BRANCH  10  13
ATOM     13  O   UNL d   1     -19.969  24.385  22.256  0.00  0.00    -0.347 OA
BRANCH  13  14
ATOM     14  C   UNL d   1     -19.617  25.749  22.503  0.00  0.00     0.214 C 
BRANCH  14  15
ATOM     15  C   UNL d   1     -19.924  26.094  23.937  0.00  0.00    -0.034 A 
ATOM     16  C   UNL d   1     -19.012  25.790  24.932  0.00  0.00     0.011 A 
ATOM     17  C   UNL d   1     -19.291  26.106  26.247  0.00  0.00     0.030 A 
ATOM     18  C   UNL d   1     -20.488  26.732  26.570  0.00  0.00     0.034 A 
ATOM     19  C   UNL d   1     -21.402  27.036  25.570  0.00  0.00     0.030 A 
ATOM     20  C   UNL d   1     -21.115  26.722  24.256  0.00  0.00     0.011 A 
BRANCH  18  21
ATOM     21  N   UNL d   1     -20.772  27.054  27.902  0.00  0.00    -0.328 N 
ATOM     22  C   UNL d   1     -20.403  28.250  28.399  0.00  0.00     0.218 C 
ATOM     23  C   UNL d   1     -20.602  28.552  29.863  0.00  0.00     0.117 C 
ATOM     24  O   UNL d   1     -19.911  29.085  27.670  0.00  0.00    -0.274 OA
ATOM     25  H   UNL d   1     -21.235  26.415  28.467  0.00  0.00     0.169 HD
ENDBRANCH  18  21
ENDBRANCH  14  15
ENDBRANCH  13  14
ENDBRANCH  10  13
ENDBRANCH   1   7
BRANCH   4  26
ATOM     26  C   UNL d   1     -29.411  21.881  23.598  0.00  0.00     0.139 A 
ATOM     27  N   UNL d   1     -29.910  21.277  24.719  0.00  0.00    -0.338 N 
ATOM     28  C   UNL d   1     -31.266  21.098  24.513  0.00  0.00     0.064 A 
ATOM     29  H   UNL d   1     -29.409  21.024  25.509  0.00  0.00     0.167 HD
ATOM     30  C   UNL d   1     -31.537  21.611  23.232  0.00  0.00     0.102 A 
ATOM     31  C   UNL d   1     -32.289  20.553  25.274  0.00  0.00     0.038 A 
ATOM     32  N   UNL d   1     -30.378  22.070  22.729  0.00  0.00    -0.227 NA
ATOM     33  C   UNL d   1     -32.859  21.562  22.734  0.00  0.00     0.069 A 
ATOM     34  C   UNL d   1     -33.866  21.009  23.521  0.00  0.00     0.027 A 
ATOM     35  C   UNL d   1     -33.578  20.510  24.778  0.00  0.00    -0.059 A 
ATOM     36  C   UNL d   1     -34.680  19.915  25.615  0.00  0.00     0.048 C 
BRANCH  33  37
ATOM     37  C   UNL d   1     -33.168  22.093  21.397  0.00  0.00     0.178 C 
ATOM     38  O   UNL d   1     -34.279  22.520  21.154  0.00  0.00    -0.646 OA
BRANCH  37  39
ATOM     39  O   UNL d   1     -32.217  22.107  20.441  0.00  0.00    -0.773 OA
ATOM     40  H   UNL d   1     -31.444  22.665  20.599  0.00  0.00     0.167 HD
ENDBRANCH  37  39
ENDBRANCH  33  37
ENDBRANCH   4  26
TORSDOF 8
ENDMDL
