MODEL 1
REMARK VINA RESULT:     -10.3      0.000      0.000
REMARK  7 active torsions:
REMARK  status: ('A' for Active; 'I' for Inactive)
REMARK    1  A    between atoms: C_2  and  C_3 
REMARK    2  A    between atoms: C_3  and  O_4 
REMARK    3  A    between atoms: C_5  and  C_8 
REMARK       I    between atoms: C_8  and  N_10 
REMARK    4  A    between atoms: N_10  and  C_11 
REMARK    5  A    between atoms: C_14  and  C_15 
REMARK    6  A    between atoms: C_23  and  C_24 
REMARK    7  A    between atoms: C_24  and  O_26 
ROOT
ATOM      1  C   UNL d   1     -32.314  21.690  22.718  0.00  0.00     0.069 C 
ATOM      2  C   UNL d   1     -31.404  21.812  23.725  0.00  0.00     0.141 C 
ATOM      3  C   UNL d   1     -31.769  21.471  25.067  0.00  0.00     0.107 C 
ATOM      4  N   UNL d   1     -32.060  21.201  26.132  0.00  0.00    -0.191 NA
ENDROOT
BRANCH   2   5
ATOM      5  C   UNL d   1     -30.046  22.296  23.433  0.00  0.00     0.269 C 
ATOM      6  O   UNL d   1     -29.882  23.215  22.654  0.00  0.00    -0.266 OA
ATOM      7  N   UNL d   1     -28.983  21.719  24.030  0.00  0.00    -0.322 N 
ATOM      8  H   UNL d   1     -29.108  20.944  24.599  0.00  0.00     0.169 HD
BRANCH   7   9
ATOM      9  C   UNL d   1     -27.701  22.239  23.827  0.00  0.00     0.036 A 
ATOM     10  C   UNL d   1     -26.984  21.886  22.694  0.00  0.00     0.048 A 
ATOM     11  C   UNL d   1     -25.707  22.409  22.489  0.00  0.00     0.052 A 
ATOM     12  C   UNL d   1     -25.152  23.285  23.441  0.00  0.00    -0.006 A 
ATOM     13  C   UNL d   1     -25.888  23.629  24.573  0.00  0.00     0.015 A 
ATOM     14  C   UNL d   1     -27.150  23.110  24.762  0.00  0.00     0.030 A 
BRANCH  11  15
ATOM     15  C   UNL d   1     -24.942  22.043  21.283  0.00  0.00     0.293 C 
ATOM     16  O   UNL d   1     -24.380  20.966  21.224  0.00  0.00    -0.259 OA
BRANCH  15  17
ATOM     17  O   UNL d   1     -24.865  22.900  20.248  0.00  0.00    -0.322 OA
ATOM     18  C   UNL d   1     -23.549  23.134  19.681  0.00  0.00     0.213 C 
ENDBRANCH  15  17
ENDBRANCH  11  15
BRANCH  12  19
ATOM     19  C   UNL d   1     -23.796  23.842  23.236  0.00  0.00     0.014 A 
ATOM     20  C   UNL d   1     -23.619  25.219  23.088  0.00  0.00     0.130 A 
ATOM     21  C   UNL d   1     -22.349  25.733  22.898  0.00  0.00     0.085 A 
ATOM     22  F   UNL d   1     -24.685  26.048  23.130  0.00  0.00    -0.205 F 
ATOM     23  C   UNL d   1     -21.256  24.884  22.860  0.00  0.00     0.119 A 
ATOM     24  C   UNL d   1     -21.428  23.516  23.002  0.00  0.00     0.043 A 
ATOM     25  F   UNL d   1     -20.017  25.391  22.680  0.00  0.00    -0.206 F 
ATOM     26  C   UNL d   1     -22.690  22.992  23.192  0.00  0.00     0.018 A 
ENDBRANCH  12  19
ENDBRANCH   7   9
ENDBRANCH   2   5
BRANCH   1  27
ATOM     27  C   UNL d   1     -33.705  21.195  23.017  0.00  0.00     0.061 C 
ATOM     28  C   UNL d   1     -34.134  20.195  21.942  0.00  0.00     0.012 C 
ENDBRANCH   1  27
BRANCH   1  29
ATOM     29  O   UNL d   1     -31.971  22.009  21.458  0.00  0.00    -0.363 OA
ATOM     30  H   UNL d   1     -32.137  22.919  21.175  0.00  0.00     0.217 HD
ENDBRANCH   1  29
TORSDOF 7
ENDMDL
