MODEL 1
REMARK VINA RESULT:     -10.0      0.000      0.000
REMARK  7 active torsions:
REMARK  status: ('A' for Active; 'I' for Inactive)
REMARK    1  A    between atoms: C_2  and  C_4 
REMARK    2  A    between atoms: N_6  and  C_7 
REMARK    3  A    between atoms: C_9  and  O_10 
REMARK    4  A    between atoms: O_10  and  C_11 
REMARK    5  A    between atoms: C_11  and  C_13 
REMARK    6  A    between atoms: C_17  and  C_18 
REMARK       I    between atoms: C_18  and  N_20 
REMARK    7  A    between atoms: N_20  and  C_21 
ROOT
ATOM      1  C   UNL d   1     -26.757  23.249  23.673  0.00  0.00     0.104 A 
ATOM      2  C   UNL d   1     -25.870  22.775  22.715  0.00  0.00     0.073 A 
ATOM      3  C   UNL d   1     -24.619  23.351  22.583  0.00  0.00     0.087 A 
ATOM      4  C   UNL d   1     -24.249  24.415  23.419  0.00  0.00     0.068 A 
ATOM      5  C   UNL d   1     -25.149  24.888  24.381  0.00  0.00     0.064 A 
ATOM      6  C   UNL d   1     -26.392  24.308  24.504  0.00  0.00     0.146 A 
ATOM      7  F   UNL d   1     -27.260  24.765  25.433  0.00  0.00    -0.204 F 
ENDROOT
BRANCH   4   8
ATOM      8  C   UNL d   1     -22.919  25.033  23.285  0.00  0.00     0.259 C 
ATOM      9  O   UNL d   1     -22.789  26.067  22.657  0.00  0.00    -0.267 OA
ATOM     10  N   UNL d   1     -21.845  24.454  23.858  0.00  0.00    -0.318 N 
ATOM     11  H   UNL d   1     -21.933  23.587  24.286  0.00  0.00     0.169 HD
BRANCH  10  12
ATOM     12  C   UNL d   1     -20.603  25.101  23.835  0.00  0.00     0.113 A 
ATOM     13  C   UNL d   1     -19.681  24.804  22.839  0.00  0.00     0.146 A 
ATOM     14  C   UNL d   1     -18.456  25.446  22.820  0.00  0.00     0.045 A 
ATOM     15  F   UNL d   1     -19.981  23.890  21.890  0.00  0.00    -0.204 F 
ATOM     16  C   UNL d   1     -18.148  26.382  23.790  0.00  0.00     0.006 A 
ATOM     17  C   UNL d   1     -19.063  26.681  24.783  0.00  0.00     0.045 A 
ATOM     18  C   UNL d   1     -20.292  26.046  24.806  0.00  0.00     0.146 A 
ATOM     19  F   UNL d   1     -21.188  26.342  25.773  0.00  0.00    -0.204 F 
ENDBRANCH  10  12
ENDBRANCH   4   8
BRANCH   3  20
ATOM     20  O   UNL d   1     -23.752  22.887  21.648  0.00  0.00    -0.336 OA
BRANCH  20  21
ATOM     21  C   UNL d   1     -23.866  23.431  20.332  0.00  0.00     0.232 C 
ATOM     22  C   UNL d   1     -22.483  23.859  19.835  0.00  0.00     0.049 C 
BRANCH  21  23
ATOM     23  C   UNL d   1     -24.439  22.370  19.390  0.00  0.00     0.413 C 
ATOM     24  F   UNL d   1     -25.712  21.993  19.832  0.00  0.00    -0.168 F 
ATOM     25  F   UNL d   1     -24.532  22.895  18.097  0.00  0.00    -0.168 F 
ATOM     26  F   UNL d   1     -23.600  21.252  19.379  0.00  0.00    -0.168 F 
ENDBRANCH  21  23
ENDBRANCH  20  21
ENDBRANCH   3  20
BRANCH   1  27
ATOM     27  N   UNL d   1     -28.017  22.662  23.807  0.00  0.00    -0.178 N 
ATOM     28  N   UNL d   1     -29.042  22.667  22.850  0.00  0.00    -0.149 NA
ATOM     29  C   UNL d   1     -30.052  22.022  23.339  0.00  0.00     0.134 A 
ATOM     30  N   UNL d   1     -29.730  21.585  24.601  0.00  0.00    -0.288 N 
ATOM     31  C   UNL d   1     -28.471  21.980  24.879  0.00  0.00     0.351 A 
ATOM     32  C   UNL d   1     -30.604  20.816  25.491  0.00  0.00     0.162 C 
ATOM     33  O   UNL d   1     -27.858  21.762  25.908  0.00  0.00    -0.244 OA
BRANCH  29  34
ATOM     34  C   UNL d   1     -31.365  21.788  22.639  0.00  0.00     0.049 C 
ATOM     35  C   UNL d   1     -32.460  22.612  23.319  0.00  0.00     0.018 C 
ATOM     36  C   UNL d   1     -31.245  22.210  21.173  0.00  0.00     0.018 C 
ENDBRANCH  29  34
ENDBRANCH   1  27
TORSDOF 7
ENDMDL
