MODEL 1
REMARK VINA RESULT:     -10.8      0.000      0.000
REMARK  4 active torsions:
REMARK  status: ('A' for Active; 'I' for Inactive)
REMARK       I    between atoms: C_2  and  N_3 
REMARK    1  A    between atoms: C_2  and  C_20 
REMARK    2  A    between atoms: N_3  and  C_4 
REMARK    3  A    between atoms: N_12  and  C_13 
REMARK    4  A    between atoms: C_23  and  C_24 
ROOT
ATOM      1  C   UNL d   1     -26.572  23.848  24.212  0.00  0.00     0.121 C 
ATOM      2  C   UNL d   1     -26.453  25.365  24.405  0.00  0.00     0.030 C 
ATOM      3  C   UNL d   1     -25.017  25.719  24.803  0.00  0.00     0.008 C 
ATOM      4  C   UNL d   1     -24.087  25.508  23.601  0.00  0.00     0.060 C 
ATOM      5  C   UNL d   1     -24.348  24.136  23.033  0.00  0.00     0.046 A 
ATOM      6  C   UNL d   1     -25.452  23.396  23.306  0.00  0.00     0.008 A 
ATOM      7  C   UNL d   1     -25.347  22.193  22.611  0.00  0.00     0.150 A 
ATOM      8  N   UNL d   1     -24.220  22.205  21.942  0.00  0.00    -0.179 NA
ATOM      9  N   UNL d   1     -23.573  23.425  22.193  0.00  0.00    -0.235 N 
ENDROOT
BRANCH   1  10
ATOM     10  N   UNL d   1     -27.863  23.528  23.598  0.00  0.00    -0.347 N 
ATOM     11  C   UNL d   1     -28.664  22.600  24.157  0.00  0.00     0.270 C 
ATOM     12  O   UNL d   1     -28.315  22.028  25.171  0.00  0.00    -0.266 OA
ATOM     13  H   UNL d   1     -28.141  23.984  22.788  0.00  0.00     0.163 HD
BRANCH  11  14
ATOM     14  C   UNL d   1     -29.970  22.277  23.536  0.00  0.00     0.124 A 
ATOM     15  N   UNL d   1     -30.970  21.845  24.293  0.00  0.00    -0.255 NA
ATOM     16  C   UNL d   1     -32.144  21.548  23.781  0.00  0.00     0.133 A 
ATOM     17  C   UNL d   1     -32.381  21.676  22.422  0.00  0.00     0.065 A 
ATOM     18  C   UNL d   1     -31.364  22.124  21.594  0.00  0.00     0.020 A 
ATOM     19  C   UNL d   1     -30.138  22.435  22.162  0.00  0.00     0.038 A 
BRANCH  17  20
ATOM     20  C   UNL d   1     -33.732  21.331  21.850  0.00  0.00     0.418 C 
ATOM     21  F   UNL d   1     -33.565  20.579  20.683  0.00  0.00    -0.166 F 
ATOM     22  F   UNL d   1     -34.459  20.587  22.785  0.00  0.00    -0.166 F 
ATOM     23  F   UNL d   1     -34.425  22.509  21.551  0.00  0.00    -0.166 F 
ENDBRANCH  17  20
ENDBRANCH  11  14
ENDBRANCH   1  10
BRANCH   9  24
ATOM     24  C   UNL d   1     -22.339  23.831  21.664  0.00  0.00     0.097 A 
ATOM     25  C   UNL d   1     -21.172  23.645  22.396  0.00  0.00     0.145 A 
ATOM     26  C   UNL d   1     -19.956  24.040  21.868  0.00  0.00     0.045 A 
ATOM     27  F   UNL d   1     -21.224  23.074  23.619  0.00  0.00    -0.204 F 
ATOM     28  C   UNL d   1     -19.904  24.631  20.618  0.00  0.00     0.003 A 
ATOM     29  C   UNL d   1     -21.064  24.822  19.891  0.00  0.00     0.002 A 
ATOM     30  C   UNL d   1     -22.281  24.424  20.410  0.00  0.00     0.035 A 
ENDBRANCH   9  24
TORSDOF 4
ENDMDL
