MODEL 1
REMARK VINA RESULT:     -11.2      0.000      0.000
REMARK  3 active torsions:
REMARK  status: ('A' for Active; 'I' for Inactive)
REMARK       I    between atoms: C_2  and  N_3 
REMARK    1  A    between atoms: C_2  and  C_20 
REMARK    2  A    between atoms: N_3  and  C_4 
REMARK    3  A    between atoms: N_12  and  C_13 
ROOT
ATOM      1  C   UNL d   1     -27.272  22.286  22.294  0.00  0.00     0.121 C 
ATOM      2  C   UNL d   1     -26.526  21.177  21.542  0.00  0.00     0.030 C 
ATOM      3  C   UNL d   1     -25.428  21.796  20.673  0.00  0.00     0.008 C 
ATOM      4  C   UNL d   1     -24.309  22.338  21.572  0.00  0.00     0.060 C 
ATOM      5  C   UNL d   1     -24.935  23.196  22.645  0.00  0.00     0.046 A 
ATOM      6  C   UNL d   1     -26.253  23.173  22.965  0.00  0.00     0.008 A 
ATOM      7  C   UNL d   1     -26.463  24.092  23.991  0.00  0.00     0.150 A 
ATOM      8  N   UNL d   1     -25.312  24.649  24.281  0.00  0.00    -0.179 NA
ATOM      9  N   UNL d   1     -24.332  24.096  23.443  0.00  0.00    -0.235 N 
ENDROOT
BRANCH   1  10
ATOM     10  N   UNL d   1     -28.151  21.691  23.303  0.00  0.00    -0.346 N 
ATOM     11  C   UNL d   1     -29.405  22.159  23.465  0.00  0.00     0.278 C 
ATOM     12  O   UNL d   1     -29.806  23.073  22.772  0.00  0.00    -0.265 OA
ATOM     13  H   UNL d   1     -27.830  20.961  23.857  0.00  0.00     0.163 HD
BRANCH  11  14
ATOM     14  C   UNL d   1     -30.290  21.561  24.482  0.00  0.00     0.177 A 
ATOM     15  C   UNL d   1     -31.561  21.134  24.309  0.00  0.00     0.010 A 
ATOM     16  C   UNL d   1     -31.952  20.656  25.583  0.00  0.00     0.071 A 
ATOM     17  C   UNL d   1     -32.446  21.120  23.097  0.00  0.00     0.044 C 
ATOM     18  N   UNL d   1     -30.939  20.823  26.365  0.00  0.00    -0.132 NA
ATOM     19  C   UNL d   1     -33.317  20.085  25.865  0.00  0.00     0.062 C 
ATOM     20  O   UNL d   1     -29.998  21.326  25.781  0.00  0.00    -0.207 OA
ATOM     21  C   UNL d   1     -34.253  20.504  24.724  0.00  0.00     0.006 C 
ATOM     22  C   UNL d   1     -33.617  20.165  23.374  0.00  0.00     0.005 C 
ENDBRANCH  11  14
ENDBRANCH   1  10
BRANCH   9  23
ATOM     23  C   UNL d   1     -22.969  24.424  23.437  0.00  0.00     0.097 A 
ATOM     24  C   UNL d   1     -22.559  25.691  23.037  0.00  0.00     0.145 A 
ATOM     25  C   UNL d   1     -21.213  26.012  23.038  0.00  0.00     0.045 A 
ATOM     26  F   UNL d   1     -23.472  26.608  22.652  0.00  0.00    -0.204 F 
ATOM     27  C   UNL d   1     -20.277  25.071  23.425  0.00  0.00     0.003 A 
ATOM     28  C   UNL d   1     -20.683  23.808  23.818  0.00  0.00     0.002 A 
ATOM     29  C   UNL d   1     -22.025  23.483  23.824  0.00  0.00     0.035 A 
ENDBRANCH   9  23
TORSDOF 3
ENDMDL
