MODEL 1
REMARK VINA RESULT:      -9.2      0.000      0.000
REMARK  5 active torsions:
REMARK  status: ('A' for Active; 'I' for Inactive)
REMARK    1  A    between atoms: C_3  and  C_4 
REMARK    2  A    between atoms: C_3  and  C_17 
REMARK       I    between atoms: C_4  and  N_6 
REMARK    3  A    between atoms: N_6  and  C_7 
REMARK    4  A    between atoms: C_10  and  C_11 
REMARK    5  A    between atoms: C_17  and  C_19 
ROOT
ATOM      1  N   UNL d   1     -30.857  21.176  26.697  0.00  0.00    -0.196 NA
ATOM      2  C   UNL d   1     -31.161  21.593  25.686  0.00  0.00     0.081 C 
ATOM      3  C   UNL d   1     -31.556  22.134  24.374  0.00  0.00     0.254 C 
ENDROOT
BRANCH   3   4
ATOM      4  C   UNL d   1     -30.329  22.327  23.521  0.00  0.00     0.247 C 
ATOM      5  O   UNL d   1     -30.409  22.929  22.471  0.00  0.00    -0.271 OA
ATOM      6  N   UNL d   1     -29.142  21.832  23.924  0.00  0.00    -0.326 N 
ATOM      7  H   UNL d   1     -29.064  21.410  24.794  0.00  0.00     0.169 HD
BRANCH   6   8
ATOM      8  C   UNL d   1     -28.025  21.925  23.088  0.00  0.00     0.034 A 
ATOM      9  C   UNL d   1     -28.048  21.341  21.828  0.00  0.00     0.030 A 
ATOM     10  C   UNL d   1     -26.943  21.436  21.005  0.00  0.00     0.018 A 
ATOM     11  C   UNL d   1     -25.815  22.112  21.433  0.00  0.00     0.048 A 
ATOM     12  C   UNL d   1     -25.790  22.695  22.686  0.00  0.00     0.018 A 
ATOM     13  C   UNL d   1     -26.892  22.608  23.512  0.00  0.00     0.030 A 
BRANCH  11  14
ATOM     14  C   UNL d   1     -24.613  22.214  20.531  0.00  0.00     0.417 C 
ATOM     15  F   UNL d   1     -23.949  20.984  20.496  0.00  0.00    -0.166 F 
ATOM     16  F   UNL d   1     -25.027  22.557  19.239  0.00  0.00    -0.166 F 
ATOM     17  F   UNL d   1     -23.746  23.198  21.019  0.00  0.00    -0.166 F 
ENDBRANCH  11  14
ENDBRANCH   6   8
ENDBRANCH   3   4
BRANCH   3  18
ATOM     18  C   UNL d   1     -32.494  21.170  23.696  0.00  0.00     0.157 C 
ATOM     19  O   UNL d   1     -32.427  19.989  23.940  0.00  0.00    -0.296 OA
BRANCH  18  20
ATOM     20  C   UNL d   1     -33.516  21.680  22.712  0.00  0.00     0.057 A 
ATOM     21  C   UNL d   1     -33.225  21.479  21.223  0.00  0.00     0.013 A 
ATOM     22  C   UNL d   1     -34.305  20.642  21.912  0.00  0.00     0.013 A 
ENDBRANCH  18  20
ENDBRANCH   3  18
TORSDOF 5
ENDMDL
