MODEL 1
REMARK VINA RESULT:     -12.1      0.000      0.000
REMARK  4 active torsions:
REMARK  status: ('A' for Active; 'I' for Inactive)
REMARK    1  A    between atoms: C_3  and  C_4 
REMARK    2  A    between atoms: C_7  and  C_8 
REMARK    3  A    between atoms: C_24  and  C_25 
REMARK    4  A    between atoms: C_25  and  O_27 
ROOT
ATOM      1  C   UNL d   1     -27.932  21.849  25.533  0.00  0.00     0.052 C 
ATOM      2  C   UNL d   1     -28.886  21.932  24.369  0.00  0.00    -0.015 A 
ATOM      3  C   UNL d   1     -28.428  22.335  23.105  0.00  0.00     0.074 A 
ATOM      4  N   UNL d   1     -29.228  22.425  22.064  0.00  0.00    -0.247 NA
ATOM      5  C   UNL d   1     -30.527  22.131  22.134  0.00  0.00     0.069 A 
ATOM      6  C   UNL d   1     -31.357  22.233  21.001  0.00  0.00     0.032 A 
ATOM      7  C   UNL d   1     -32.679  21.931  21.105  0.00  0.00     0.002 A 
ATOM      8  C   UNL d   1     -33.231  21.522  22.317  0.00  0.00     0.001 A 
ATOM      9  C   UNL d   1     -32.457  21.412  23.434  0.00  0.00     0.015 A 
ATOM     10  C   UNL d   1     -31.094  21.714  23.365  0.00  0.00     0.010 A 
ATOM     11  C   UNL d   1     -30.225  21.611  24.538  0.00  0.00     0.058 A 
ENDROOT
BRANCH   3  12
ATOM     12  C   UNL d   1     -26.995  22.676  22.938  0.00  0.00    -0.007 A 
ATOM     13  C   UNL d   1     -26.190  21.912  22.092  0.00  0.00     0.014 A 
ATOM     14  C   UNL d   1     -24.860  22.231  21.934  0.00  0.00     0.013 A 
ATOM     15  C   UNL d   1     -24.314  23.311  22.627  0.00  0.00    -0.021 A 
ATOM     16  C   UNL d   1     -25.120  24.076  23.473  0.00  0.00     0.013 A 
ATOM     17  C   UNL d   1     -26.451  23.760  23.627  0.00  0.00     0.014 A 
BRANCH  15  18
ATOM     18  C   UNL d   1     -22.882  23.652  22.461  0.00  0.00     0.032 A 
ATOM     19  C   UNL d   1     -22.421  24.227  21.274  0.00  0.00     0.220 A 
ATOM     20  N   UNL d   1     -21.146  24.531  21.128  0.00  0.00    -0.232 NA
ATOM     21  F   UNL d   1     -23.289  24.475  20.269  0.00  0.00    -0.183 F 
ATOM     22  C   UNL d   1     -20.263  24.307  22.082  0.00  0.00     0.120 A 
ATOM     23  C   UNL d   1     -20.642  23.739  23.285  0.00  0.00     0.020 A 
ATOM     24  C   UNL d   1     -21.968  23.403  23.489  0.00  0.00     0.018 A 
ENDBRANCH  15  18
ENDBRANCH   3  12
BRANCH  11  25
ATOM     25  C   UNL d   1     -30.754  21.182  25.850  0.00  0.00     0.177 C 
ATOM     26  O   UNL d   1     -31.365  21.968  26.545  0.00  0.00    -0.646 OA
BRANCH  25  27
ATOM     27  O   UNL d   1     -30.558  19.918  26.273  0.00  0.00    -0.773 OA
ATOM     28  H   UNL d   1     -31.328  19.447  26.619  0.00  0.00     0.167 HD
ENDBRANCH  25  27
ENDBRANCH  11  25
TORSDOF 4
ENDMDL
