MODEL 1
REMARK VINA RESULT:     -11.2      0.000      0.000
REMARK  9 active torsions:
REMARK  status: ('A' for Active; 'I' for Inactive)
REMARK    1  A    between atoms: C_4  and  C_5 
REMARK    2  A    between atoms: C_5  and  O_7 
REMARK    3  A    between atoms: C_10  and  C_11 
REMARK    4  A    between atoms: C_14  and  C_15 
REMARK    5  A    between atoms: C_18  and  O_19 
REMARK    6  A    between atoms: O_19  and  C_20 
REMARK    7  A    between atoms: C_20  and  C_21 
REMARK    8  A    between atoms: C_21  and  C_22 
REMARK    9  A    between atoms: C_22  and  N_23 
ROOT
ATOM      1  C   UNL d   1     -27.750  22.273  23.209  0.00  0.00     0.010 A 
ATOM      2  C   UNL d   1     -27.096  23.201  24.023  0.00  0.00     0.016 A 
ATOM      3  C   UNL d   1     -25.791  23.550  23.758  0.00  0.00     0.013 A 
ATOM      4  C   UNL d   1     -25.121  22.976  22.677  0.00  0.00    -0.026 A 
ATOM      5  C   UNL d   1     -25.775  22.053  21.861  0.00  0.00     0.013 A 
ATOM      6  C   UNL d   1     -27.078  21.699  22.126  0.00  0.00     0.016 A 
ENDROOT
BRANCH   4   7
ATOM      7  C   UNL d   1     -23.716  23.353  22.393  0.00  0.00    -0.026 A 
ATOM      8  C   UNL d   1     -22.731  23.164  23.362  0.00  0.00     0.015 A 
ATOM      9  C   UNL d   1     -21.426  23.516  23.094  0.00  0.00     0.037 A 
ATOM     10  C   UNL d   1     -21.090  24.053  21.858  0.00  0.00     0.068 A 
ATOM     11  C   UNL d   1     -22.069  24.247  20.892  0.00  0.00     0.037 A 
ATOM     12  C   UNL d   1     -23.376  23.897  21.154  0.00  0.00     0.015 A 
BRANCH  10  13
ATOM     13  O   UNL d   1     -19.801  24.393  21.594  0.00  0.00    -0.351 OA
BRANCH  13  14
ATOM     14  C   UNL d   1     -18.930  24.555  22.717  0.00  0.00     0.177 C 
BRANCH  14  15
ATOM     15  C   UNL d   1     -18.868  26.034  23.105  0.00  0.00     0.057 C 
BRANCH  15  16
ATOM     16  C   UNL d   1     -18.450  26.159  24.571  0.00  0.00     0.274 C 
BRANCH  16  17
ATOM     17  N   UNL d   1     -19.607  26.571  25.376  0.00  0.00     0.088 N 
ATOM     18  C   UNL d   1     -20.756  26.894  24.520  0.00  0.00     0.272 C 
ATOM     19  C   UNL d   1     -21.981  27.177  25.393  0.00  0.00     0.030 C 
ATOM     20  C   UNL d   1     -21.674  28.348  26.329  0.00  0.00     0.003 C 
ATOM     21  C   UNL d   1     -20.445  28.005  27.176  0.00  0.00     0.030 C 
ATOM     22  C   UNL d   1     -19.264  27.699  26.252  0.00  0.00     0.272 C 
ENDBRANCH  16  17
ENDBRANCH  15  16
ENDBRANCH  14  15
ENDBRANCH  13  14
ENDBRANCH  10  13
ENDBRANCH   4   7
BRANCH   1  23
ATOM     23  C   UNL d   1     -29.151  21.899  23.491  0.00  0.00     0.139 A 
ATOM     24  N   UNL d   1     -30.160  22.072  22.669  0.00  0.00    -0.227 NA
ATOM     25  C   UNL d   1     -31.293  21.623  23.238  0.00  0.00     0.102 A 
ATOM     26  C   UNL d   1     -32.638  21.566  22.808  0.00  0.00     0.069 A 
ATOM     27  C   UNL d   1     -30.957  21.133  24.512  0.00  0.00     0.064 A 
ATOM     28  C   UNL d   1     -33.604  21.027  23.655  0.00  0.00     0.027 A 
ATOM     29  C   UNL d   1     -33.252  20.550  24.903  0.00  0.00    -0.059 A 
ATOM     30  C   UNL d   1     -34.310  19.970  25.805  0.00  0.00     0.048 C 
ATOM     31  C   UNL d   1     -31.940  20.602  25.333  0.00  0.00     0.038 A 
ATOM     32  N   UNL d   1     -29.592  21.315  24.647  0.00  0.00    -0.338 N 
ATOM     33  H   UNL d   1     -29.052  21.076  25.415  0.00  0.00     0.167 HD
BRANCH  26  34
ATOM     34  C   UNL d   1     -33.014  22.072  21.478  0.00  0.00     0.178 C 
ATOM     35  O   UNL d   1     -34.147  22.463  21.276  0.00  0.00    -0.646 OA
BRANCH  34  36
ATOM     36  O   UNL d   1     -32.103  22.103  20.486  0.00  0.00    -0.773 OA
ATOM     37  H   UNL d   1     -31.321  21.544  20.591  0.00  0.00     0.167 HD
ENDBRANCH  34  36
ENDBRANCH  26  34
ENDBRANCH   1  23
TORSDOF 9
ENDMDL
